* NGSPICE file created from tms1x00_ram.ext - technology: sky130B

* Black-box entry subcircuit for sky130_fd_sc_hd__tapvpwrvgnd_1 abstract view
.subckt sky130_fd_sc_hd__tapvpwrvgnd_1 VGND VPWR
.ends

* Black-box entry subcircuit for sky130_fd_sc_hd__fill_2 abstract view
.subckt sky130_fd_sc_hd__fill_2 VGND VNB VPB VPWR
.ends

* Black-box entry subcircuit for sky130_ef_sc_hd__decap_12 abstract view
.subckt sky130_ef_sc_hd__decap_12 VGND VNB VPB VPWR
.ends

* Black-box entry subcircuit for sky130_fd_sc_hd__mux2_1 abstract view
.subckt sky130_fd_sc_hd__mux2_1 A0 A1 S VGND VNB VPB VPWR X
.ends

* Black-box entry subcircuit for sky130_fd_sc_hd__decap_6 abstract view
.subckt sky130_fd_sc_hd__decap_6 VGND VNB VPB VPWR
.ends

* Black-box entry subcircuit for sky130_fd_sc_hd__decap_4 abstract view
.subckt sky130_fd_sc_hd__decap_4 VGND VNB VPB VPWR
.ends

* Black-box entry subcircuit for sky130_fd_sc_hd__clkbuf_1 abstract view
.subckt sky130_fd_sc_hd__clkbuf_1 A VGND VNB VPB VPWR X
.ends

* Black-box entry subcircuit for sky130_fd_sc_hd__nand2_2 abstract view
.subckt sky130_fd_sc_hd__nand2_2 A B VGND VNB VPB VPWR Y
.ends

* Black-box entry subcircuit for sky130_fd_sc_hd__diode_2 abstract view
.subckt sky130_fd_sc_hd__diode_2 DIODE VGND VNB VPB VPWR
.ends

* Black-box entry subcircuit for sky130_fd_sc_hd__fill_1 abstract view
.subckt sky130_fd_sc_hd__fill_1 VGND VNB VPB VPWR
.ends

* Black-box entry subcircuit for sky130_fd_sc_hd__decap_3 abstract view
.subckt sky130_fd_sc_hd__decap_3 VGND VNB VPB VPWR
.ends

* Black-box entry subcircuit for sky130_fd_sc_hd__decap_8 abstract view
.subckt sky130_fd_sc_hd__decap_8 VGND VNB VPB VPWR
.ends

* Black-box entry subcircuit for sky130_fd_sc_hd__nor2_2 abstract view
.subckt sky130_fd_sc_hd__nor2_2 A B VGND VNB VPB VPWR Y
.ends

* Black-box entry subcircuit for sky130_fd_sc_hd__dfxtp_1 abstract view
.subckt sky130_fd_sc_hd__dfxtp_1 CLK D VGND VNB VPB VPWR Q
.ends

* Black-box entry subcircuit for sky130_fd_sc_hd__mux4_1 abstract view
.subckt sky130_fd_sc_hd__mux4_1 A0 A1 A2 A3 S0 S1 VGND VNB VPB VPWR X
.ends

* Black-box entry subcircuit for sky130_fd_sc_hd__or2_4 abstract view
.subckt sky130_fd_sc_hd__or2_4 A B VGND VNB VPB VPWR X
.ends

* Black-box entry subcircuit for sky130_fd_sc_hd__nor2_1 abstract view
.subckt sky130_fd_sc_hd__nor2_1 A B VGND VNB VPB VPWR Y
.ends

* Black-box entry subcircuit for sky130_fd_sc_hd__or2_1 abstract view
.subckt sky130_fd_sc_hd__or2_1 A B VGND VNB VPB VPWR X
.ends

* Black-box entry subcircuit for sky130_fd_sc_hd__o22a_1 abstract view
.subckt sky130_fd_sc_hd__o22a_1 A1 A2 B1 B2 VGND VNB VPB VPWR X
.ends

* Black-box entry subcircuit for sky130_fd_sc_hd__a21bo_1 abstract view
.subckt sky130_fd_sc_hd__a21bo_1 A1 A2 B1_N VGND VNB VPB VPWR X
.ends

* Black-box entry subcircuit for sky130_fd_sc_hd__nor2_4 abstract view
.subckt sky130_fd_sc_hd__nor2_4 A B VGND VNB VPB VPWR Y
.ends

* Black-box entry subcircuit for sky130_fd_sc_hd__nand2_1 abstract view
.subckt sky130_fd_sc_hd__nand2_1 A B VGND VNB VPB VPWR Y
.ends

* Black-box entry subcircuit for sky130_fd_sc_hd__or2_2 abstract view
.subckt sky130_fd_sc_hd__or2_2 A B VGND VNB VPB VPWR X
.ends

* Black-box entry subcircuit for sky130_fd_sc_hd__a22o_1 abstract view
.subckt sky130_fd_sc_hd__a22o_1 A1 A2 B1 B2 VGND VNB VPB VPWR X
.ends

* Black-box entry subcircuit for sky130_fd_sc_hd__nand2_8 abstract view
.subckt sky130_fd_sc_hd__nand2_8 A B VGND VNB VPB VPWR Y
.ends

* Black-box entry subcircuit for sky130_fd_sc_hd__a211o_1 abstract view
.subckt sky130_fd_sc_hd__a211o_1 A1 A2 B1 C1 VGND VNB VPB VPWR X
.ends

* Black-box entry subcircuit for sky130_fd_sc_hd__a21o_1 abstract view
.subckt sky130_fd_sc_hd__a21o_1 A1 A2 B1 VGND VNB VPB VPWR X
.ends

* Black-box entry subcircuit for sky130_fd_sc_hd__buf_2 abstract view
.subckt sky130_fd_sc_hd__buf_2 A VGND VNB VPB VPWR X
.ends

* Black-box entry subcircuit for sky130_fd_sc_hd__a21oi_1 abstract view
.subckt sky130_fd_sc_hd__a21oi_1 A1 A2 B1 VGND VNB VPB VPWR Y
.ends

* Black-box entry subcircuit for sky130_fd_sc_hd__and2_1 abstract view
.subckt sky130_fd_sc_hd__and2_1 A B VGND VNB VPB VPWR X
.ends

* Black-box entry subcircuit for sky130_fd_sc_hd__o21ai_1 abstract view
.subckt sky130_fd_sc_hd__o21ai_1 A1 A2 B1 VGND VNB VPB VPWR Y
.ends

* Black-box entry subcircuit for sky130_fd_sc_hd__nand2b_4 abstract view
.subckt sky130_fd_sc_hd__nand2b_4 A_N B VGND VNB VPB VPWR Y
.ends

* Black-box entry subcircuit for sky130_fd_sc_hd__o32a_1 abstract view
.subckt sky130_fd_sc_hd__o32a_1 A1 A2 A3 B1 B2 VGND VNB VPB VPWR X
.ends

* Black-box entry subcircuit for sky130_fd_sc_hd__buf_4 abstract view
.subckt sky130_fd_sc_hd__buf_4 A VGND VNB VPB VPWR X
.ends

* Black-box entry subcircuit for sky130_fd_sc_hd__nand2_4 abstract view
.subckt sky130_fd_sc_hd__nand2_4 A B VGND VNB VPB VPWR Y
.ends

* Black-box entry subcircuit for sky130_fd_sc_hd__nor2_8 abstract view
.subckt sky130_fd_sc_hd__nor2_8 A B VGND VNB VPB VPWR Y
.ends

* Black-box entry subcircuit for sky130_fd_sc_hd__clkbuf_16 abstract view
.subckt sky130_fd_sc_hd__clkbuf_16 A VGND VNB VPB VPWR X
.ends

* Black-box entry subcircuit for sky130_fd_sc_hd__clkbuf_4 abstract view
.subckt sky130_fd_sc_hd__clkbuf_4 A VGND VNB VPB VPWR X
.ends

* Black-box entry subcircuit for sky130_fd_sc_hd__a31o_1 abstract view
.subckt sky130_fd_sc_hd__a31o_1 A1 A2 A3 B1 VGND VNB VPB VPWR X
.ends

* Black-box entry subcircuit for sky130_fd_sc_hd__o2bb2a_1 abstract view
.subckt sky130_fd_sc_hd__o2bb2a_1 A1_N A2_N B1 B2 VGND VNB VPB VPWR X
.ends

* Black-box entry subcircuit for sky130_fd_sc_hd__o211a_1 abstract view
.subckt sky130_fd_sc_hd__o211a_1 A1 A2 B1 C1 VGND VNB VPB VPWR X
.ends

* Black-box entry subcircuit for sky130_fd_sc_hd__or2b_1 abstract view
.subckt sky130_fd_sc_hd__or2b_1 A B_N VGND VNB VPB VPWR X
.ends

* Black-box entry subcircuit for sky130_fd_sc_hd__buf_6 abstract view
.subckt sky130_fd_sc_hd__buf_6 A VGND VNB VPB VPWR X
.ends

* Black-box entry subcircuit for sky130_fd_sc_hd__or4_1 abstract view
.subckt sky130_fd_sc_hd__or4_1 A B C D VGND VNB VPB VPWR X
.ends

* Black-box entry subcircuit for sky130_fd_sc_hd__buf_8 abstract view
.subckt sky130_fd_sc_hd__buf_8 A VGND VNB VPB VPWR X
.ends

* Black-box entry subcircuit for sky130_fd_sc_hd__o21ba_1 abstract view
.subckt sky130_fd_sc_hd__o21ba_1 A1 A2 B1_N VGND VNB VPB VPWR X
.ends

* Black-box entry subcircuit for sky130_fd_sc_hd__o21a_1 abstract view
.subckt sky130_fd_sc_hd__o21a_1 A1 A2 B1 VGND VNB VPB VPWR X
.ends

* Black-box entry subcircuit for sky130_fd_sc_hd__or3_1 abstract view
.subckt sky130_fd_sc_hd__or3_1 A B C VGND VNB VPB VPWR X
.ends

* Black-box entry subcircuit for sky130_fd_sc_hd__a32o_1 abstract view
.subckt sky130_fd_sc_hd__a32o_1 A1 A2 A3 B1 B2 VGND VNB VPB VPWR X
.ends

* Black-box entry subcircuit for sky130_fd_sc_hd__and2b_1 abstract view
.subckt sky130_fd_sc_hd__and2b_1 A_N B VGND VNB VPB VPWR X
.ends

* Black-box entry subcircuit for sky130_fd_sc_hd__clkinv_2 abstract view
.subckt sky130_fd_sc_hd__clkinv_2 A VGND VNB VPB VPWR Y
.ends

* Black-box entry subcircuit for sky130_fd_sc_hd__inv_2 abstract view
.subckt sky130_fd_sc_hd__inv_2 A VGND VNB VPB VPWR Y
.ends

* Black-box entry subcircuit for sky130_fd_sc_hd__and2b_2 abstract view
.subckt sky130_fd_sc_hd__and2b_2 A_N B VGND VNB VPB VPWR X
.ends

* Black-box entry subcircuit for sky130_fd_sc_hd__clkbuf_2 abstract view
.subckt sky130_fd_sc_hd__clkbuf_2 A VGND VNB VPB VPWR X
.ends

* Black-box entry subcircuit for sky130_fd_sc_hd__o221a_1 abstract view
.subckt sky130_fd_sc_hd__o221a_1 A1 A2 B1 B2 C1 VGND VNB VPB VPWR X
.ends

* Black-box entry subcircuit for sky130_fd_sc_hd__dlymetal6s2s_1 abstract view
.subckt sky130_fd_sc_hd__dlymetal6s2s_1 A VGND VNB VPB VPWR X
.ends

* Black-box entry subcircuit for sky130_fd_sc_hd__o221ai_2 abstract view
.subckt sky130_fd_sc_hd__o221ai_2 A1 A2 B1 B2 C1 VGND VNB VPB VPWR Y
.ends

* Black-box entry subcircuit for sky130_fd_sc_hd__a22oi_4 abstract view
.subckt sky130_fd_sc_hd__a22oi_4 A1 A2 B1 B2 VGND VNB VPB VPWR Y
.ends

* Black-box entry subcircuit for sky130_fd_sc_hd__a2bb2o_1 abstract view
.subckt sky130_fd_sc_hd__a2bb2o_1 A1_N A2_N B1 B2 VGND VNB VPB VPWR X
.ends

* Black-box entry subcircuit for sky130_fd_sc_hd__and3b_1 abstract view
.subckt sky130_fd_sc_hd__and3b_1 A_N B C VGND VNB VPB VPWR X
.ends

* Black-box entry subcircuit for sky130_fd_sc_hd__clkbuf_8 abstract view
.subckt sky130_fd_sc_hd__clkbuf_8 A VGND VNB VPB VPWR X
.ends

* Black-box entry subcircuit for sky130_fd_sc_hd__o311a_1 abstract view
.subckt sky130_fd_sc_hd__o311a_1 A1 A2 A3 B1 C1 VGND VNB VPB VPWR X
.ends

* Black-box entry subcircuit for sky130_fd_sc_hd__or2b_2 abstract view
.subckt sky130_fd_sc_hd__or2b_2 A B_N VGND VNB VPB VPWR X
.ends

.subckt tms1x00_ram clk r_val[0] r_val[1] r_val[2] r_val[3] ram_addr[0] ram_addr[1]
+ ram_addr[2] ram_addr[3] ram_addr[4] ram_addr[5] ram_addr[6] vccd1 vssd1 w_val[0]
+ w_val[1] w_val[2] w_val[3] wen
XTAP_177 vssd1 vccd1 sky130_fd_sc_hd__tapvpwrvgnd_1
XTAP_188 vssd1 vccd1 sky130_fd_sc_hd__tapvpwrvgnd_1
XTAP_199 vssd1 vccd1 sky130_fd_sc_hd__tapvpwrvgnd_1
XFILLER_39_222 vssd1 vssd1 vccd1 vccd1 sky130_fd_sc_hd__fill_2
XFILLER_82_501 vssd1 vssd1 vccd1 vccd1 sky130_ef_sc_hd__decap_12
X_3155_ RAM\[116\]\[1\] _1024_ _1568_ vssd1 vssd1 vccd1 vccd1 _1570_ sky130_fd_sc_hd__mux2_1
XFILLER_54_225 vssd1 vssd1 vccd1 vccd1 sky130_fd_sc_hd__decap_6
XFILLER_54_214 vssd1 vssd1 vccd1 vccd1 sky130_fd_sc_hd__decap_4
X_3086_ _1530_ vssd1 vssd1 vccd1 vccd1 _0435_ sky130_fd_sc_hd__clkbuf_1
X_2106_ _0952_ _0953_ vssd1 vssd1 vccd1 vccd1 _0954_ sky130_fd_sc_hd__nand2_2
XFILLER_54_247 vssd1 vssd1 vccd1 vccd1 sky130_fd_sc_hd__decap_4
X_2037_ _0893_ RAM\[59\]\[0\] _0908_ vssd1 vssd1 vccd1 vccd1 _0909_ sky130_fd_sc_hd__mux2_1
XANTENNA__2455__A _0884_ vssd1 vssd1 vccd1 vccd1 sky130_fd_sc_hd__diode_2
XFILLER_62_291 vssd1 vssd1 vccd1 vccd1 sky130_fd_sc_hd__fill_1
XFILLER_52_29 vssd1 vssd1 vccd1 vccd1 sky130_fd_sc_hd__fill_2
X_2939_ _1446_ vssd1 vssd1 vccd1 vccd1 _0372_ sky130_fd_sc_hd__clkbuf_1
XANTENNA__2190__A _0539_ vssd1 vssd1 vccd1 vccd1 sky130_fd_sc_hd__diode_2
XFILLER_77_328 vssd1 vssd1 vccd1 vccd1 sky130_fd_sc_hd__decap_4
XFILLER_73_501 vssd1 vssd1 vccd1 vccd1 sky130_fd_sc_hd__decap_3
XFILLER_18_439 vssd1 vssd1 vccd1 vccd1 sky130_fd_sc_hd__decap_4
XFILLER_45_225 vssd1 vssd1 vccd1 vccd1 sky130_fd_sc_hd__decap_4
XFILLER_26_461 vssd1 vssd1 vccd1 vccd1 sky130_fd_sc_hd__decap_4
XANTENNA__2084__B _0939_ vssd1 vssd1 vccd1 vccd1 sky130_fd_sc_hd__diode_2
XFILLER_13_111 vssd1 vssd1 vccd1 vccd1 sky130_fd_sc_hd__fill_1
XFILLER_26_85 vssd1 vssd1 vccd1 vccd1 sky130_fd_sc_hd__fill_2
XFILLER_41_420 vssd1 vssd1 vccd1 vccd1 sky130_fd_sc_hd__fill_1
XFILLER_41_497 vssd1 vssd1 vccd1 vccd1 sky130_fd_sc_hd__decap_6
XFILLER_42_62 vssd1 vssd1 vccd1 vccd1 sky130_fd_sc_hd__decap_4
XANTENNA__2812__B _1007_ vssd1 vssd1 vccd1 vccd1 sky130_fd_sc_hd__diode_2
XFILLER_54_9 vssd1 vssd1 vccd1 vccd1 sky130_fd_sc_hd__fill_1
XFILLER_3_12 vssd1 vssd1 vccd1 vccd1 sky130_fd_sc_hd__decap_4
XFILLER_76_383 vssd1 vssd1 vccd1 vccd1 sky130_fd_sc_hd__decap_4
XFILLER_64_523 vssd1 vssd1 vccd1 vccd1 sky130_fd_sc_hd__decap_6
XANTENNA__1684__A1 _0561_ vssd1 vssd1 vccd1 vccd1 sky130_fd_sc_hd__diode_2
XFILLER_36_203 vssd1 vssd1 vccd1 vccd1 sky130_fd_sc_hd__decap_8
XFILLER_17_483 vssd1 vssd1 vccd1 vccd1 sky130_fd_sc_hd__decap_4
XFILLER_44_291 vssd1 vssd1 vccd1 vccd1 sky130_fd_sc_hd__decap_6
XANTENNA__3189__A1 _1018_ vssd1 vssd1 vccd1 vccd1 sky130_fd_sc_hd__diode_2
X_2724_ _1320_ vssd1 vssd1 vccd1 vccd1 _0283_ sky130_fd_sc_hd__clkbuf_1
XFILLER_8_181 vssd1 vssd1 vccd1 vccd1 sky130_fd_sc_hd__decap_4
X_2655_ _1280_ vssd1 vssd1 vccd1 vccd1 _0254_ sky130_fd_sc_hd__clkbuf_1
X_2586_ _0914_ _1063_ vssd1 vssd1 vccd1 vccd1 _1242_ sky130_fd_sc_hd__nor2_2
XANTENNA__2169__B _0992_ vssd1 vssd1 vccd1 vccd1 sky130_fd_sc_hd__diode_2
XFILLER_74_309 vssd1 vssd1 vccd1 vccd1 sky130_fd_sc_hd__fill_2
X_3207_ _1522_ RAM\[122\]\[0\] _1598_ vssd1 vssd1 vccd1 vccd1 _1599_ sky130_fd_sc_hd__mux2_1
XFILLER_27_225 vssd1 vssd1 vccd1 vccd1 sky130_fd_sc_hd__fill_2
X_3138_ _1560_ vssd1 vssd1 vccd1 vccd1 _0457_ sky130_fd_sc_hd__clkbuf_1
XFILLER_27_236 vssd1 vssd1 vccd1 vccd1 sky130_fd_sc_hd__decap_4
X_3069_ _1519_ vssd1 vssd1 vccd1 vccd1 _0429_ sky130_fd_sc_hd__clkbuf_1
XFILLER_50_250 vssd1 vssd1 vccd1 vccd1 sky130_fd_sc_hd__fill_2
XFILLER_2_357 vssd1 vssd1 vccd1 vccd1 sky130_fd_sc_hd__decap_6
XANTENNA_clkbuf_leaf_31_clk_A clknet_2_1__leaf_clk vssd1 vssd1 vccd1 vccd1 sky130_fd_sc_hd__diode_2
XFILLER_77_169 vssd1 vssd1 vccd1 vccd1 sky130_fd_sc_hd__fill_2
XFILLER_58_394 vssd1 vssd1 vccd1 vccd1 sky130_fd_sc_hd__decap_4
XFILLER_58_372 vssd1 vssd1 vccd1 vccd1 sky130_fd_sc_hd__decap_4
XFILLER_37_51 vssd1 vssd1 vccd1 vccd1 sky130_fd_sc_hd__decap_4
XFILLER_46_523 vssd1 vssd1 vccd1 vccd1 sky130_fd_sc_hd__decap_6
XFILLER_73_375 vssd1 vssd1 vccd1 vccd1 sky130_fd_sc_hd__decap_4
XFILLER_61_515 vssd1 vssd1 vccd1 vccd1 sky130_fd_sc_hd__decap_4
XFILLER_14_431 vssd1 vssd1 vccd1 vccd1 sky130_fd_sc_hd__decap_4
XFILLER_53_61 vssd1 vssd1 vccd1 vccd1 sky130_fd_sc_hd__decap_4
X_2440_ RAM\[40\]\[3\] _1116_ _1153_ vssd1 vssd1 vccd1 vccd1 _1157_ sky130_fd_sc_hd__mux2_1
XFILLER_5_173 vssd1 vssd1 vccd1 vccd1 sky130_fd_sc_hd__fill_1
X_2371_ RAM\[33\]\[0\] _1107_ _1118_ vssd1 vssd1 vccd1 vccd1 _1119_ sky130_fd_sc_hd__mux2_1
XFILLER_78_80 vssd1 vssd1 vccd1 vccd1 sky130_fd_sc_hd__decap_4
XFILLER_56_309 vssd1 vssd1 vccd1 vccd1 sky130_fd_sc_hd__fill_2
XFILLER_64_320 vssd1 vssd1 vccd1 vccd1 sky130_fd_sc_hd__decap_4
XFILLER_24_217 vssd1 vssd1 vccd1 vccd1 sky130_fd_sc_hd__decap_4
XFILLER_64_397 vssd1 vssd1 vccd1 vccd1 sky130_fd_sc_hd__decap_4
XFILLER_20_401 vssd1 vssd1 vccd1 vccd1 sky130_fd_sc_hd__decap_8
XANTENNA__2452__B _1076_ vssd1 vssd1 vccd1 vccd1 sky130_fd_sc_hd__diode_2
XFILLER_20_456 vssd1 vssd1 vccd1 vccd1 sky130_fd_sc_hd__decap_4
X_3756_ clknet_leaf_38_clk _0496_ vssd1 vssd1 vccd1 vccd1 RAM\[124\]\[0\] sky130_fd_sc_hd__dfxtp_1
X_2707_ _0978_ _1051_ vssd1 vssd1 vccd1 vccd1 _1311_ sky130_fd_sc_hd__nor2_2
X_3687_ clknet_leaf_42_clk _0427_ vssd1 vssd1 vccd1 vccd1 RAM\[106\]\[3\] sky130_fd_sc_hd__dfxtp_1
X_2638_ _1230_ RAM\[61\]\[3\] _1267_ vssd1 vssd1 vccd1 vccd1 _1271_ sky130_fd_sc_hd__mux2_1
X_2569_ _1222_ RAM\[54\]\[0\] _1232_ vssd1 vssd1 vccd1 vccd1 _1233_ sky130_fd_sc_hd__mux2_1
XFILLER_59_169 vssd1 vssd1 vccd1 vccd1 sky130_fd_sc_hd__fill_2
XFILLER_74_139 vssd1 vssd1 vccd1 vccd1 sky130_fd_sc_hd__fill_1
XFILLER_28_523 vssd1 vssd1 vccd1 vccd1 sky130_fd_sc_hd__decap_6
XFILLER_70_301 vssd1 vssd1 vccd1 vccd1 sky130_fd_sc_hd__decap_6
XFILLER_82_194 vssd1 vssd1 vccd1 vccd1 sky130_fd_sc_hd__fill_2
XFILLER_11_423 vssd1 vssd1 vccd1 vccd1 sky130_fd_sc_hd__decap_4
XFILLER_23_53 vssd1 vssd1 vccd1 vccd1 sky130_fd_sc_hd__decap_3
XFILLER_11_489 vssd1 vssd1 vccd1 vccd1 sky130_ef_sc_hd__decap_12
XFILLER_7_449 vssd1 vssd1 vccd1 vccd1 sky130_ef_sc_hd__decap_12
XFILLER_7_427 vssd1 vssd1 vccd1 vccd1 sky130_ef_sc_hd__decap_12
XFILLER_23_75 vssd1 vssd1 vccd1 vccd1 sky130_fd_sc_hd__fill_1
XANTENNA__1706__B _0534_ vssd1 vssd1 vccd1 vccd1 sky130_fd_sc_hd__diode_2
XFILLER_78_467 vssd1 vssd1 vccd1 vccd1 sky130_fd_sc_hd__decap_8
XANTENNA__1982__S1 _0516_ vssd1 vssd1 vccd1 vccd1 sky130_fd_sc_hd__diode_2
XFILLER_38_309 vssd1 vssd1 vccd1 vccd1 sky130_fd_sc_hd__fill_2
XFILLER_78_489 vssd1 vssd1 vccd1 vccd1 sky130_ef_sc_hd__decap_12
XFILLER_65_106 vssd1 vssd1 vccd1 vccd1 sky130_fd_sc_hd__decap_6
XANTENNA__1722__A _0526_ vssd1 vssd1 vccd1 vccd1 sky130_fd_sc_hd__diode_2
XFILLER_19_501 vssd1 vssd1 vccd1 vccd1 sky130_fd_sc_hd__decap_3
XFILLER_46_320 vssd1 vssd1 vccd1 vccd1 sky130_fd_sc_hd__decap_4
XFILLER_0_57 vssd1 vssd1 vccd1 vccd1 sky130_fd_sc_hd__decap_4
XFILLER_64_82 vssd1 vssd1 vccd1 vccd1 sky130_fd_sc_hd__fill_2
XFILLER_61_334 vssd1 vssd1 vccd1 vccd1 sky130_fd_sc_hd__fill_2
XFILLER_61_378 vssd1 vssd1 vccd1 vccd1 sky130_fd_sc_hd__fill_1
XFILLER_9_11 vssd1 vssd1 vccd1 vccd1 sky130_fd_sc_hd__decap_4
XFILLER_14_250 vssd1 vssd1 vccd1 vccd1 sky130_fd_sc_hd__fill_2
X_1940_ RAM\[108\]\[3\] RAM\[109\]\[3\] RAM\[110\]\[3\] RAM\[111\]\[3\] _0571_ _0516_
+ vssd1 vssd1 vccd1 vccd1 _0821_ sky130_fd_sc_hd__mux4_1
XFILLER_9_66 vssd1 vssd1 vccd1 vccd1 sky130_fd_sc_hd__decap_4
XFILLER_9_55 vssd1 vssd1 vccd1 vccd1 sky130_fd_sc_hd__fill_1
X_1871_ RAM\[116\]\[2\] RAM\[117\]\[2\] RAM\[118\]\[2\] RAM\[119\]\[2\] _0537_ _0607_
+ vssd1 vssd1 vccd1 vccd1 _0753_ sky130_fd_sc_hd__mux4_1
X_3610_ clknet_leaf_19_clk _0350_ vssd1 vssd1 vccd1 vccd1 RAM\[87\]\[2\] sky130_fd_sc_hd__dfxtp_1
XFILLER_80_70 vssd1 vssd1 vccd1 vccd1 sky130_fd_sc_hd__decap_4
X_3541_ clknet_leaf_24_clk _0281_ vssd1 vssd1 vccd1 vccd1 RAM\[70\]\[1\] sky130_fd_sc_hd__dfxtp_1
X_3472_ clknet_leaf_32_clk _0212_ vssd1 vssd1 vccd1 vccd1 RAM\[53\]\[0\] sky130_fd_sc_hd__dfxtp_1
XFILLER_50_3 vssd1 vssd1 vccd1 vccd1 sky130_fd_sc_hd__decap_4
X_2423_ _1147_ vssd1 vssd1 vccd1 vccd1 _0155_ sky130_fd_sc_hd__clkbuf_1
X_2354_ _1106_ vssd1 vssd1 vccd1 vccd1 _0127_ sky130_fd_sc_hd__clkbuf_1
XANTENNA__1878__A1 _0573_ vssd1 vssd1 vccd1 vccd1 sky130_fd_sc_hd__diode_2
X_2285_ RAM\[24\]\[2\] _1028_ _1064_ vssd1 vssd1 vccd1 vccd1 _1067_ sky130_fd_sc_hd__mux2_1
XFILLER_69_489 vssd1 vssd1 vccd1 vccd1 sky130_fd_sc_hd__decap_4
XANTENNA__1632__A net2 vssd1 vssd1 vccd1 vccd1 sky130_fd_sc_hd__diode_2
XANTENNA__1973__S1 _0638_ vssd1 vssd1 vccd1 vccd1 sky130_fd_sc_hd__diode_2
XFILLER_49_180 vssd1 vssd1 vccd1 vccd1 sky130_fd_sc_hd__decap_4
XANTENNA__1725__S1 _0608_ vssd1 vssd1 vccd1 vccd1 sky130_fd_sc_hd__diode_2
XFILLER_37_375 vssd1 vssd1 vccd1 vccd1 sky130_fd_sc_hd__fill_1
XFILLER_64_194 vssd1 vssd1 vccd1 vccd1 sky130_fd_sc_hd__fill_2
XFILLER_37_397 vssd1 vssd1 vccd1 vccd1 sky130_fd_sc_hd__decap_6
XFILLER_60_29 vssd1 vssd1 vccd1 vccd1 sky130_fd_sc_hd__decap_4
XFILLER_20_253 vssd1 vssd1 vccd1 vccd1 sky130_fd_sc_hd__decap_6
XFILLER_4_419 vssd1 vssd1 vccd1 vccd1 sky130_fd_sc_hd__fill_1
X_3739_ clknet_leaf_7_clk _0479_ vssd1 vssd1 vccd1 vccd1 RAM\[11\]\[3\] sky130_fd_sc_hd__dfxtp_1
XFILLER_85_26 vssd1 vssd1 vccd1 vccd1 sky130_fd_sc_hd__fill_2
XFILLER_85_37 vssd1 vssd1 vccd1 vccd1 sky130_fd_sc_hd__decap_4
XFILLER_75_415 vssd1 vssd1 vccd1 vccd1 sky130_fd_sc_hd__decap_4
XFILLER_75_459 vssd1 vssd1 vccd1 vccd1 sky130_fd_sc_hd__decap_4
XFILLER_55_183 vssd1 vssd1 vccd1 vccd1 sky130_fd_sc_hd__decap_4
XFILLER_43_334 vssd1 vssd1 vccd1 vccd1 sky130_fd_sc_hd__fill_2
XANTENNA__3243__A0 _0876_ vssd1 vssd1 vccd1 vccd1 sky130_fd_sc_hd__diode_2
XFILLER_70_197 vssd1 vssd1 vccd1 vccd1 sky130_fd_sc_hd__fill_2
XANTENNA__3188__B _1063_ vssd1 vssd1 vccd1 vccd1 sky130_fd_sc_hd__diode_2
XFILLER_34_85 vssd1 vssd1 vccd1 vccd1 sky130_fd_sc_hd__decap_4
XFILLER_11_264 vssd1 vssd1 vccd1 vccd1 sky130_fd_sc_hd__decap_8
XFILLER_11_297 vssd1 vssd1 vccd1 vccd1 sky130_fd_sc_hd__decap_8
XFILLER_50_51 vssd1 vssd1 vccd1 vccd1 sky130_fd_sc_hd__decap_4
XANTENNA__1717__A net6 vssd1 vssd1 vccd1 vccd1 sky130_fd_sc_hd__diode_2
XTAP_507 vssd1 vccd1 sky130_fd_sc_hd__tapvpwrvgnd_1
XFILLER_3_485 vssd1 vssd1 vccd1 vccd1 sky130_ef_sc_hd__decap_12
XTAP_518 vssd1 vccd1 sky130_fd_sc_hd__tapvpwrvgnd_1
XTAP_529 vssd1 vccd1 sky130_fd_sc_hd__tapvpwrvgnd_1
XFILLER_78_253 vssd1 vssd1 vccd1 vccd1 sky130_fd_sc_hd__fill_2
XFILLER_78_264 vssd1 vssd1 vccd1 vccd1 sky130_fd_sc_hd__decap_8
XFILLER_19_320 vssd1 vssd1 vccd1 vccd1 sky130_fd_sc_hd__decap_4
X_2070_ _0904_ _0557_ vssd1 vssd1 vccd1 vccd1 _0930_ sky130_fd_sc_hd__or2_4
XANTENNA__2285__A1 _1028_ vssd1 vssd1 vccd1 vccd1 sky130_fd_sc_hd__diode_2
XFILLER_19_364 vssd1 vssd1 vccd1 vccd1 sky130_fd_sc_hd__decap_4
XFILLER_74_481 vssd1 vssd1 vccd1 vccd1 sky130_fd_sc_hd__decap_4
XFILLER_19_397 vssd1 vssd1 vccd1 vccd1 sky130_fd_sc_hd__decap_4
XFILLER_46_194 vssd1 vssd1 vccd1 vccd1 sky130_fd_sc_hd__fill_2
XFILLER_61_131 vssd1 vssd1 vccd1 vccd1 sky130_fd_sc_hd__decap_6
X_2972_ _1465_ vssd1 vssd1 vccd1 vccd1 _0386_ sky130_fd_sc_hd__clkbuf_1
XANTENNA__3234__A0 _0876_ vssd1 vssd1 vccd1 vccd1 sky130_fd_sc_hd__diode_2
X_1923_ _0536_ _0803_ vssd1 vssd1 vccd1 vccd1 _0804_ sky130_fd_sc_hd__nor2_1
XANTENNA__1796__B1 _0624_ vssd1 vssd1 vccd1 vccd1 sky130_fd_sc_hd__diode_2
X_1854_ RAM\[64\]\[2\] RAM\[65\]\[2\] RAM\[66\]\[2\] RAM\[67\]\[2\] _0538_ _0628_
+ vssd1 vssd1 vccd1 vccd1 _0736_ sky130_fd_sc_hd__mux4_1
X_1785_ RAM\[0\]\[1\] RAM\[1\]\[1\] RAM\[2\]\[1\] RAM\[3\]\[1\] _0565_ _0566_ vssd1
+ vssd1 vccd1 vccd1 _0668_ sky130_fd_sc_hd__mux4_1
X_3524_ clknet_leaf_23_clk _0264_ vssd1 vssd1 vccd1 vccd1 RAM\[66\]\[0\] sky130_fd_sc_hd__dfxtp_1
X_3455_ clknet_leaf_31_clk _0195_ vssd1 vssd1 vccd1 vccd1 RAM\[48\]\[3\] sky130_fd_sc_hd__dfxtp_1
X_2406_ _0878_ _1109_ vssd1 vssd1 vccd1 vccd1 _1138_ sky130_fd_sc_hd__nor2_2
X_3386_ clknet_leaf_8_clk _0126_ vssd1 vssd1 vccd1 vccd1 RAM\[31\]\[2\] sky130_fd_sc_hd__dfxtp_1
X_2337_ _0945_ _0992_ vssd1 vssd1 vccd1 vccd1 _1097_ sky130_fd_sc_hd__nand2_2
XANTENNA__1946__S1 _0517_ vssd1 vssd1 vccd1 vccd1 sky130_fd_sc_hd__diode_2
XFILLER_29_106 vssd1 vssd1 vccd1 vccd1 sky130_fd_sc_hd__decap_6
XANTENNA__2458__A _0887_ vssd1 vssd1 vccd1 vccd1 sky130_fd_sc_hd__diode_2
X_2268_ _1056_ vssd1 vssd1 vccd1 vccd1 _0091_ sky130_fd_sc_hd__clkbuf_1
XFILLER_44_109 vssd1 vssd1 vccd1 vccd1 sky130_fd_sc_hd__decap_4
X_2199_ RAM\[16\]\[3\] _0891_ _1008_ vssd1 vssd1 vccd1 vccd1 _1012_ sky130_fd_sc_hd__mux2_1
XFILLER_25_334 vssd1 vssd1 vccd1 vccd1 sky130_fd_sc_hd__fill_2
XFILLER_37_161 vssd1 vssd1 vccd1 vccd1 sky130_fd_sc_hd__decap_6
XFILLER_80_473 vssd1 vssd1 vccd1 vccd1 sky130_fd_sc_hd__decap_3
XFILLER_25_389 vssd1 vssd1 vccd1 vccd1 sky130_fd_sc_hd__decap_3
XANTENNA__3225__A0 _0876_ vssd1 vssd1 vccd1 vccd1 sky130_fd_sc_hd__diode_2
XFILLER_52_197 vssd1 vssd1 vccd1 vccd1 sky130_fd_sc_hd__fill_2
XANTENNA__2640__B _0992_ vssd1 vssd1 vccd1 vccd1 sky130_fd_sc_hd__diode_2
XFILLER_4_249 vssd1 vssd1 vccd1 vccd1 sky130_fd_sc_hd__decap_3
XFILLER_4_238 vssd1 vssd1 vccd1 vccd1 sky130_fd_sc_hd__decap_8
XFILLER_0_433 vssd1 vssd1 vccd1 vccd1 sky130_ef_sc_hd__decap_12
XFILLER_0_477 vssd1 vssd1 vccd1 vccd1 sky130_ef_sc_hd__decap_12
XFILLER_75_278 vssd1 vssd1 vccd1 vccd1 sky130_fd_sc_hd__fill_2
XANTENNA__2267__A1 _1031_ vssd1 vssd1 vccd1 vccd1 sky130_fd_sc_hd__diode_2
XFILLER_56_481 vssd1 vssd1 vccd1 vccd1 sky130_fd_sc_hd__decap_4
XFILLER_28_194 vssd1 vssd1 vccd1 vccd1 sky130_fd_sc_hd__fill_2
XFILLER_43_131 vssd1 vssd1 vccd1 vccd1 sky130_fd_sc_hd__decap_6
XFILLER_71_495 vssd1 vssd1 vccd1 vccd1 sky130_fd_sc_hd__decap_4
XFILLER_16_389 vssd1 vssd1 vccd1 vccd1 sky130_fd_sc_hd__decap_4
XANTENNA__3216__A0 _1522_ vssd1 vssd1 vccd1 vccd1 sky130_fd_sc_hd__diode_2
XFILLER_31_315 vssd1 vssd1 vccd1 vccd1 sky130_fd_sc_hd__fill_1
XFILLER_43_153 vssd1 vssd1 vccd1 vccd1 sky130_fd_sc_hd__decap_4
XFILLER_31_337 vssd1 vssd1 vccd1 vccd1 sky130_fd_sc_hd__decap_6
XANTENNA__2831__A _0890_ vssd1 vssd1 vccd1 vccd1 sky130_fd_sc_hd__diode_2
XFILLER_6_34 vssd1 vssd1 vccd1 vccd1 sky130_fd_sc_hd__decap_4
XFILLER_6_89 vssd1 vssd1 vccd1 vccd1 sky130_fd_sc_hd__decap_4
XFILLER_6_78 vssd1 vssd1 vccd1 vccd1 sky130_fd_sc_hd__decap_6
XTAP_304 vssd1 vccd1 sky130_fd_sc_hd__tapvpwrvgnd_1
XTAP_315 vssd1 vccd1 sky130_fd_sc_hd__tapvpwrvgnd_1
XANTENNA__1881__S _0528_ vssd1 vssd1 vccd1 vccd1 sky130_fd_sc_hd__diode_2
XTAP_326 vssd1 vccd1 sky130_fd_sc_hd__tapvpwrvgnd_1
XTAP_337 vssd1 vccd1 sky130_fd_sc_hd__tapvpwrvgnd_1
XTAP_348 vssd1 vccd1 sky130_fd_sc_hd__tapvpwrvgnd_1
X_3240_ _0891_ RAM\[125\]\[3\] _1613_ vssd1 vssd1 vccd1 vccd1 _1617_ sky130_fd_sc_hd__mux2_1
XANTENNA__1928__S1 _0517_ vssd1 vssd1 vccd1 vccd1 sky130_fd_sc_hd__diode_2
XANTENNA__2278__A _0539_ vssd1 vssd1 vccd1 vccd1 sky130_fd_sc_hd__diode_2
XTAP_359 vssd1 vccd1 sky130_fd_sc_hd__tapvpwrvgnd_1
X_3171_ _1522_ RAM\[118\]\[0\] _1578_ vssd1 vssd1 vccd1 vccd1 _1579_ sky130_fd_sc_hd__mux2_1
XFILLER_13_3 vssd1 vssd1 vccd1 vccd1 sky130_fd_sc_hd__fill_2
X_2122_ _0902_ RAM\[109\]\[3\] _0959_ vssd1 vssd1 vccd1 vccd1 _0963_ sky130_fd_sc_hd__mux2_1
X_2053_ _0919_ vssd1 vssd1 vccd1 vccd1 _0013_ sky130_fd_sc_hd__clkbuf_1
XANTENNA__2725__B _0922_ vssd1 vssd1 vccd1 vccd1 sky130_fd_sc_hd__diode_2
XFILLER_62_462 vssd1 vssd1 vccd1 vccd1 sky130_fd_sc_hd__decap_4
XANTENNA__3207__A0 _1522_ vssd1 vssd1 vccd1 vccd1 sky130_fd_sc_hd__diode_2
XFILLER_34_197 vssd1 vssd1 vccd1 vccd1 sky130_fd_sc_hd__fill_2
X_2955_ _0895_ _0939_ vssd1 vssd1 vccd1 vccd1 _1455_ sky130_fd_sc_hd__nand2_2
X_2886_ _1348_ RAM\[87\]\[3\] _1411_ vssd1 vssd1 vccd1 vccd1 _1415_ sky130_fd_sc_hd__mux2_1
XANTENNA__1864__S0 _0543_ vssd1 vssd1 vccd1 vccd1 sky130_fd_sc_hd__diode_2
X_1906_ _0534_ _0787_ vssd1 vssd1 vccd1 vccd1 _0788_ sky130_fd_sc_hd__or2_1
X_1837_ _0561_ _0718_ _0719_ _0564_ vssd1 vssd1 vccd1 vccd1 _0720_ sky130_fd_sc_hd__o22a_1
X_1768_ _0648_ _0651_ _0573_ vssd1 vssd1 vccd1 vccd1 _0652_ sky130_fd_sc_hd__a21bo_1
X_3507_ clknet_leaf_38_clk _0247_ vssd1 vssd1 vccd1 vccd1 RAM\[61\]\[3\] sky130_fd_sc_hd__dfxtp_1
XFILLER_1_208 vssd1 vssd1 vccd1 vccd1 sky130_fd_sc_hd__decap_4
X_1699_ RAM\[96\]\[0\] RAM\[97\]\[0\] RAM\[98\]\[0\] RAM\[99\]\[0\] _0565_ _0516_
+ vssd1 vssd1 vccd1 vccd1 _0583_ sky130_fd_sc_hd__mux4_1
XANTENNA__1791__S _0611_ vssd1 vssd1 vccd1 vccd1 sky130_fd_sc_hd__diode_2
X_3438_ clknet_leaf_33_clk _0178_ vssd1 vssd1 vccd1 vccd1 RAM\[44\]\[2\] sky130_fd_sc_hd__dfxtp_1
X_3369_ clknet_leaf_10_clk _0109_ vssd1 vssd1 vccd1 vccd1 RAM\[27\]\[1\] sky130_fd_sc_hd__dfxtp_1
XTAP_871 vssd1 vccd1 sky130_fd_sc_hd__tapvpwrvgnd_1
XTAP_860 vssd1 vccd1 sky130_fd_sc_hd__tapvpwrvgnd_1
XFILLER_57_201 vssd1 vssd1 vccd1 vccd1 sky130_fd_sc_hd__decap_4
XTAP_893 vssd1 vccd1 sky130_fd_sc_hd__tapvpwrvgnd_1
XTAP_882 vssd1 vccd1 sky130_fd_sc_hd__tapvpwrvgnd_1
XFILLER_72_204 vssd1 vssd1 vccd1 vccd1 sky130_fd_sc_hd__decap_8
XFILLER_57_256 vssd1 vssd1 vccd1 vccd1 sky130_fd_sc_hd__decap_4
XFILLER_38_481 vssd1 vssd1 vccd1 vccd1 sky130_fd_sc_hd__decap_4
XFILLER_25_120 vssd1 vssd1 vccd1 vccd1 sky130_fd_sc_hd__decap_4
XFILLER_25_131 vssd1 vssd1 vccd1 vccd1 sky130_fd_sc_hd__fill_1
XFILLER_53_484 vssd1 vssd1 vccd1 vccd1 sky130_fd_sc_hd__decap_4
XFILLER_13_337 vssd1 vssd1 vccd1 vccd1 sky130_fd_sc_hd__decap_6
XFILLER_15_54 vssd1 vssd1 vccd1 vccd1 sky130_fd_sc_hd__fill_2
XFILLER_5_503 vssd1 vssd1 vccd1 vccd1 sky130_fd_sc_hd__fill_1
XFILLER_0_285 vssd1 vssd1 vccd1 vccd1 sky130_fd_sc_hd__decap_4
XFILLER_56_50 vssd1 vssd1 vccd1 vccd1 sky130_fd_sc_hd__fill_1
XFILLER_48_245 vssd1 vssd1 vccd1 vccd1 sky130_fd_sc_hd__decap_6
XFILLER_48_278 vssd1 vssd1 vccd1 vccd1 sky130_fd_sc_hd__decap_4
XFILLER_63_215 vssd1 vssd1 vccd1 vccd1 sky130_fd_sc_hd__decap_4
XANTENNA__1730__A _0530_ vssd1 vssd1 vccd1 vccd1 sky130_fd_sc_hd__diode_2
XANTENNA__2545__B _1039_ vssd1 vssd1 vccd1 vccd1 sky130_fd_sc_hd__diode_2
XFILLER_72_60 vssd1 vssd1 vccd1 vccd1 sky130_fd_sc_hd__fill_1
XFILLER_71_292 vssd1 vssd1 vccd1 vccd1 sky130_fd_sc_hd__decap_4
XFILLER_71_281 vssd1 vssd1 vccd1 vccd1 sky130_fd_sc_hd__fill_2
XFILLER_16_197 vssd1 vssd1 vccd1 vccd1 sky130_fd_sc_hd__fill_2
XPHY_170 vssd1 vssd1 vccd1 vccd1 sky130_fd_sc_hd__decap_3
XFILLER_72_82 vssd1 vssd1 vccd1 vccd1 sky130_fd_sc_hd__fill_2
X_2740_ _1329_ vssd1 vssd1 vccd1 vccd1 _0290_ sky130_fd_sc_hd__clkbuf_1
XFILLER_31_189 vssd1 vssd1 vccd1 vccd1 sky130_fd_sc_hd__decap_6
X_2671_ _1289_ vssd1 vssd1 vccd1 vccd1 _0261_ sky130_fd_sc_hd__clkbuf_1
XANTENNA__2280__B _1063_ vssd1 vssd1 vccd1 vccd1 sky130_fd_sc_hd__diode_2
XANTENNA__2176__A0 _0997_ vssd1 vssd1 vccd1 vccd1 sky130_fd_sc_hd__diode_2
XFILLER_79_370 vssd1 vssd1 vccd1 vccd1 sky130_fd_sc_hd__decap_4
X_3223_ _1607_ vssd1 vssd1 vccd1 vccd1 _0495_ sky130_fd_sc_hd__clkbuf_1
XFILLER_67_521 vssd1 vssd1 vccd1 vccd1 sky130_fd_sc_hd__decap_4
XTAP_178 vssd1 vccd1 sky130_fd_sc_hd__tapvpwrvgnd_1
XTAP_189 vssd1 vccd1 sky130_fd_sc_hd__tapvpwrvgnd_1
X_3154_ _1569_ vssd1 vssd1 vccd1 vccd1 _0464_ sky130_fd_sc_hd__clkbuf_1
XFILLER_82_513 vssd1 vssd1 vccd1 vccd1 sky130_ef_sc_hd__decap_12
X_3085_ _1529_ RAM\[108\]\[3\] _1523_ vssd1 vssd1 vccd1 vccd1 _1530_ sky130_fd_sc_hd__mux2_1
X_2105_ _0923_ _0879_ vssd1 vssd1 vccd1 vccd1 _0953_ sky130_fd_sc_hd__nor2_4
XFILLER_27_429 vssd1 vssd1 vccd1 vccd1 sky130_fd_sc_hd__decap_4
XANTENNA__1640__A _0523_ vssd1 vssd1 vccd1 vccd1 sky130_fd_sc_hd__diode_2
XFILLER_39_278 vssd1 vssd1 vccd1 vccd1 sky130_fd_sc_hd__fill_2
XANTENNA__2100__A0 _0900_ vssd1 vssd1 vccd1 vccd1 sky130_fd_sc_hd__diode_2
X_2036_ _0905_ _0907_ vssd1 vssd1 vccd1 vccd1 _0908_ sky130_fd_sc_hd__nand2_1
XFILLER_50_421 vssd1 vssd1 vccd1 vccd1 sky130_fd_sc_hd__fill_2
XFILLER_50_432 vssd1 vssd1 vccd1 vccd1 sky130_fd_sc_hd__decap_8
XANTENNA__1786__S _0565_ vssd1 vssd1 vccd1 vccd1 sky130_fd_sc_hd__diode_2
XFILLER_10_307 vssd1 vssd1 vccd1 vccd1 sky130_fd_sc_hd__fill_1
X_2938_ _1436_ RAM\[93\]\[0\] _1445_ vssd1 vssd1 vccd1 vccd1 _1446_ sky130_fd_sc_hd__mux2_1
XFILLER_50_487 vssd1 vssd1 vccd1 vccd1 sky130_fd_sc_hd__decap_4
XANTENNA__2190__B _0558_ vssd1 vssd1 vccd1 vccd1 sky130_fd_sc_hd__diode_2
X_2869_ _1405_ vssd1 vssd1 vccd1 vccd1 _0343_ sky130_fd_sc_hd__clkbuf_1
XFILLER_7_8 vssd1 vssd1 vccd1 vccd1 sky130_fd_sc_hd__decap_4
XTAP_690 vssd1 vccd1 sky130_fd_sc_hd__tapvpwrvgnd_1
XFILLER_18_418 vssd1 vssd1 vccd1 vccd1 sky130_fd_sc_hd__fill_2
XFILLER_53_281 vssd1 vssd1 vccd1 vccd1 sky130_fd_sc_hd__fill_2
XFILLER_53_292 vssd1 vssd1 vccd1 vccd1 sky130_fd_sc_hd__decap_4
XFILLER_13_167 vssd1 vssd1 vccd1 vccd1 sky130_fd_sc_hd__fill_1
XANTENNA__1828__S0 _0519_ vssd1 vssd1 vccd1 vccd1 sky130_fd_sc_hd__diode_2
XFILLER_42_52 vssd1 vssd1 vccd1 vccd1 sky130_fd_sc_hd__decap_6
XFILLER_42_85 vssd1 vssd1 vccd1 vccd1 sky130_fd_sc_hd__fill_2
XFILLER_42_96 vssd1 vssd1 vccd1 vccd1 sky130_fd_sc_hd__decap_4
XANTENNA_clkbuf_leaf_5_clk_A clknet_2_2__leaf_clk vssd1 vssd1 vccd1 vccd1 sky130_fd_sc_hd__diode_2
XFILLER_5_355 vssd1 vssd1 vccd1 vccd1 sky130_fd_sc_hd__decap_4
XANTENNA__2158__A0 _0893_ vssd1 vssd1 vccd1 vccd1 sky130_fd_sc_hd__diode_2
XFILLER_47_9 vssd1 vssd1 vccd1 vccd1 sky130_fd_sc_hd__fill_1
XFILLER_68_307 vssd1 vssd1 vccd1 vccd1 sky130_fd_sc_hd__fill_1
XFILLER_3_24 vssd1 vssd1 vccd1 vccd1 sky130_fd_sc_hd__decap_4
XFILLER_3_57 vssd1 vssd1 vccd1 vccd1 sky130_fd_sc_hd__decap_4
XFILLER_76_362 vssd1 vssd1 vccd1 vccd1 sky130_fd_sc_hd__fill_2
XANTENNA__2556__A _1223_ vssd1 vssd1 vccd1 vccd1 sky130_fd_sc_hd__diode_2