*SPEF "ieee 1481-1999"
*DESIGN "tms1x00_ram"
*DATE "11:11:11 Fri 11 11, 1111"
*VENDOR "OpenRCX"
*PROGRAM "Parallel Extraction"
*VERSION "1.0"
*DESIGN_FLOW "NAME_SCOPE LOCAL" "PIN_CAP NONE"
*DIVIDER /
*DELIMITER :
*BUS_DELIMITER []
*T_UNIT 1 NS
*C_UNIT 1 PF
*R_UNIT 1 OHM
*L_UNIT 1 HENRY

*NAME_MAP
*1 clk
*2 r_val[0]
*3 r_val[1]
*4 r_val[2]
*5 r_val[3]
*6 ram_addr[0]
*7 ram_addr[1]
*8 ram_addr[2]
*9 ram_addr[3]
*10 ram_addr[4]
*11 ram_addr[5]
*12 ram_addr[6]
*15 w_val[0]
*16 w_val[1]
*17 w_val[2]
*18 w_val[3]
*19 wen
*20 RAM\[0\]\[0\]
*21 RAM\[0\]\[1\]
*22 RAM\[0\]\[2\]
*23 RAM\[0\]\[3\]
*24 RAM\[100\]\[0\]
*25 RAM\[100\]\[1\]
*26 RAM\[100\]\[2\]
*27 RAM\[100\]\[3\]
*28 RAM\[101\]\[0\]
*29 RAM\[101\]\[1\]
*30 RAM\[101\]\[2\]
*31 RAM\[101\]\[3\]
*32 RAM\[102\]\[0\]
*33 RAM\[102\]\[1\]
*34 RAM\[102\]\[2\]
*35 RAM\[102\]\[3\]
*36 RAM\[103\]\[0\]
*37 RAM\[103\]\[1\]
*38 RAM\[103\]\[2\]
*39 RAM\[103\]\[3\]
*40 RAM\[104\]\[0\]
*41 RAM\[104\]\[1\]
*42 RAM\[104\]\[2\]
*43 RAM\[104\]\[3\]
*44 RAM\[105\]\[0\]
*45 RAM\[105\]\[1\]
*46 RAM\[105\]\[2\]
*47 RAM\[105\]\[3\]
*48 RAM\[106\]\[0\]
*49 RAM\[106\]\[1\]
*50 RAM\[106\]\[2\]
*51 RAM\[106\]\[3\]
*52 RAM\[107\]\[0\]
*53 RAM\[107\]\[1\]
*54 RAM\[107\]\[2\]
*55 RAM\[107\]\[3\]
*56 RAM\[108\]\[0\]
*57 RAM\[108\]\[1\]
*58 RAM\[108\]\[2\]
*59 RAM\[108\]\[3\]
*60 RAM\[109\]\[0\]
*61 RAM\[109\]\[1\]
*62 RAM\[109\]\[2\]
*63 RAM\[109\]\[3\]
*64 RAM\[10\]\[0\]
*65 RAM\[10\]\[1\]
*66 RAM\[10\]\[2\]
*67 RAM\[10\]\[3\]
*68 RAM\[110\]\[0\]
*69 RAM\[110\]\[1\]
*70 RAM\[110\]\[2\]
*71 RAM\[110\]\[3\]
*72 RAM\[111\]\[0\]
*73 RAM\[111\]\[1\]
*74 RAM\[111\]\[2\]
*75 RAM\[111\]\[3\]
*76 RAM\[112\]\[0\]
*77 RAM\[112\]\[1\]
*78 RAM\[112\]\[2\]
*79 RAM\[112\]\[3\]
*80 RAM\[113\]\[0\]
*81 RAM\[113\]\[1\]
*82 RAM\[113\]\[2\]
*83 RAM\[113\]\[3\]
*84 RAM\[114\]\[0\]
*85 RAM\[114\]\[1\]
*86 RAM\[114\]\[2\]
*87 RAM\[114\]\[3\]
*88 RAM\[115\]\[0\]
*89 RAM\[115\]\[1\]
*90 RAM\[115\]\[2\]
*91 RAM\[115\]\[3\]
*92 RAM\[116\]\[0\]
*93 RAM\[116\]\[1\]
*94 RAM\[116\]\[2\]
*95 RAM\[116\]\[3\]
*96 RAM\[117\]\[0\]
*97 RAM\[117\]\[1\]
*98 RAM\[117\]\[2\]
*99 RAM\[117\]\[3\]
*100 RAM\[118\]\[0\]
*101 RAM\[118\]\[1\]
*102 RAM\[118\]\[2\]
*103 RAM\[118\]\[3\]
*104 RAM\[119\]\[0\]
*105 RAM\[119\]\[1\]
*106 RAM\[119\]\[2\]
*107 RAM\[119\]\[3\]
*108 RAM\[11\]\[0\]
*109 RAM\[11\]\[1\]
*110 RAM\[11\]\[2\]
*111 RAM\[11\]\[3\]
*112 RAM\[120\]\[0\]
*113 RAM\[120\]\[1\]
*114 RAM\[120\]\[2\]
*115 RAM\[120\]\[3\]
*116 RAM\[121\]\[0\]
*117 RAM\[121\]\[1\]
*118 RAM\[121\]\[2\]
*119 RAM\[121\]\[3\]
*120 RAM\[122\]\[0\]
*121 RAM\[122\]\[1\]
*122 RAM\[122\]\[2\]
*123 RAM\[122\]\[3\]
*124 RAM\[123\]\[0\]
*125 RAM\[123\]\[1\]
*126 RAM\[123\]\[2\]
*127 RAM\[123\]\[3\]
*128 RAM\[124\]\[0\]
*129 RAM\[124\]\[1\]
*130 RAM\[124\]\[2\]
*131 RAM\[124\]\[3\]
*132 RAM\[125\]\[0\]
*133 RAM\[125\]\[1\]
*134 RAM\[125\]\[2\]
*135 RAM\[125\]\[3\]
*136 RAM\[126\]\[0\]
*137 RAM\[126\]\[1\]
*138 RAM\[126\]\[2\]
*139 RAM\[126\]\[3\]
*140 RAM\[127\]\[0\]
*141 RAM\[127\]\[1\]
*142 RAM\[127\]\[2\]
*143 RAM\[127\]\[3\]
*144 RAM\[12\]\[0\]
*145 RAM\[12\]\[1\]
*146 RAM\[12\]\[2\]
*147 RAM\[12\]\[3\]
*148 RAM\[13\]\[0\]
*149 RAM\[13\]\[1\]
*150 RAM\[13\]\[2\]
*151 RAM\[13\]\[3\]
*152 RAM\[14\]\[0\]
*153 RAM\[14\]\[1\]
*154 RAM\[14\]\[2\]
*155 RAM\[14\]\[3\]
*156 RAM\[15\]\[0\]
*157 RAM\[15\]\[1\]
*158 RAM\[15\]\[2\]
*159 RAM\[15\]\[3\]
*160 RAM\[16\]\[0\]
*161 RAM\[16\]\[1\]
*162 RAM\[16\]\[2\]
*163 RAM\[16\]\[3\]
*164 RAM\[17\]\[0\]
*165 RAM\[17\]\[1\]
*166 RAM\[17\]\[2\]
*167 RAM\[17\]\[3\]
*168 RAM\[18\]\[0\]
*169 RAM\[18\]\[1\]
*170 RAM\[18\]\[2\]
*171 RAM\[18\]\[3\]
*172 RAM\[19\]\[0\]
*173 RAM\[19\]\[1\]
*174 RAM\[19\]\[2\]
*175 RAM\[19\]\[3\]
*176 RAM\[1\]\[0\]
*177 RAM\[1\]\[1\]
*178 RAM\[1\]\[2\]
*179 RAM\[1\]\[3\]
*180 RAM\[20\]\[0\]
*181 RAM\[20\]\[1\]
*182 RAM\[20\]\[2\]
*183 RAM\[20\]\[3\]
*184 RAM\[21\]\[0\]
*185 RAM\[21\]\[1\]
*186 RAM\[21\]\[2\]
*187 RAM\[21\]\[3\]
*188 RAM\[22\]\[0\]
*189 RAM\[22\]\[1\]
*190 RAM\[22\]\[2\]
*191 RAM\[22\]\[3\]
*192 RAM\[23\]\[0\]
*193 RAM\[23\]\[1\]
*194 RAM\[23\]\[2\]
*195 RAM\[23\]\[3\]
*196 RAM\[24\]\[0\]
*197 RAM\[24\]\[1\]
*198 RAM\[24\]\[2\]
*199 RAM\[24\]\[3\]
*200 RAM\[25\]\[0\]
*201 RAM\[25\]\[1\]
*202 RAM\[25\]\[2\]
*203 RAM\[25\]\[3\]
*204 RAM\[26\]\[0\]
*205 RAM\[26\]\[1\]
*206 RAM\[26\]\[2\]
*207 RAM\[26\]\[3\]
*208 RAM\[27\]\[0\]
*209 RAM\[27\]\[1\]
*210 RAM\[27\]\[2\]
*211 RAM\[27\]\[3\]
*212 RAM\[28\]\[0\]
*213 RAM\[28\]\[1\]
*214 RAM\[28\]\[2\]
*215 RAM\[28\]\[3\]
*216 RAM\[29\]\[0\]
*217 RAM\[29\]\[1\]
*218 RAM\[29\]\[2\]
*219 RAM\[29\]\[3\]
*220 RAM\[2\]\[0\]
*221 RAM\[2\]\[1\]
*222 RAM\[2\]\[2\]
*223 RAM\[2\]\[3\]
*224 RAM\[30\]\[0\]
*225 RAM\[30\]\[1\]
*226 RAM\[30\]\[2\]
*227 RAM\[30\]\[3\]
*228 RAM\[31\]\[0\]
*229 RAM\[31\]\[1\]
*230 RAM\[31\]\[2\]
*231 RAM\[31\]\[3\]
*232 RAM\[32\]\[0\]
*233 RAM\[32\]\[1\]
*234 RAM\[32\]\[2\]
*235 RAM\[32\]\[3\]
*236 RAM\[33\]\[0\]
*237 RAM\[33\]\[1\]
*238 RAM\[33\]\[2\]
*239 RAM\[33\]\[3\]
*240 RAM\[34\]\[0\]
*241 RAM\[34\]\[1\]
*242 RAM\[34\]\[2\]
*243 RAM\[34\]\[3\]
*244 RAM\[35\]\[0\]
*245 RAM\[35\]\[1\]
*246 RAM\[35\]\[2\]
*247 RAM\[35\]\[3\]
*248 RAM\[36\]\[0\]
*249 RAM\[36\]\[1\]
*250 RAM\[36\]\[2\]
*251 RAM\[36\]\[3\]
*252 RAM\[37\]\[0\]
*253 RAM\[37\]\[1\]
*254 RAM\[37\]\[2\]
*255 RAM\[37\]\[3\]
*256 RAM\[38\]\[0\]
*257 RAM\[38\]\[1\]
*258 RAM\[38\]\[2\]
*259 RAM\[38\]\[3\]
*260 RAM\[39\]\[0\]
*261 RAM\[39\]\[1\]
*262 RAM\[39\]\[2\]
*263 RAM\[39\]\[3\]
*264 RAM\[3\]\[0\]
*265 RAM\[3\]\[1\]
*266 RAM\[3\]\[2\]
*267 RAM\[3\]\[3\]
*268 RAM\[40\]\[0\]
*269 RAM\[40\]\[1\]
*270 RAM\[40\]\[2\]
*271 RAM\[40\]\[3\]
*272 RAM\[41\]\[0\]
*273 RAM\[41\]\[1\]
*274 RAM\[41\]\[2\]
*275 RAM\[41\]\[3\]
*276 RAM\[42\]\[0\]
*277 RAM\[42\]\[1\]
*278 RAM\[42\]\[2\]
*279 RAM\[42\]\[3\]
*280 RAM\[43\]\[0\]
*281 RAM\[43\]\[1\]
*282 RAM\[43\]\[2\]
*283 RAM\[43\]\[3\]
*284 RAM\[44\]\[0\]
*285 RAM\[44\]\[1\]
*286 RAM\[44\]\[2\]
*287 RAM\[44\]\[3\]
*288 RAM\[45\]\[0\]
*289 RAM\[45\]\[1\]
*290 RAM\[45\]\[2\]
*291 RAM\[45\]\[3\]
*292 RAM\[46\]\[0\]
*293 RAM\[46\]\[1\]
*294 RAM\[46\]\[2\]
*295 RAM\[46\]\[3\]
*296 RAM\[47\]\[0\]
*297 RAM\[47\]\[1\]
*298 RAM\[47\]\[2\]
*299 RAM\[47\]\[3\]
*300 RAM\[48\]\[0\]
*301 RAM\[48\]\[1\]
*302 RAM\[48\]\[2\]
*303 RAM\[48\]\[3\]
*304 RAM\[49\]\[0\]
*305 RAM\[49\]\[1\]
*306 RAM\[49\]\[2\]
*307 RAM\[49\]\[3\]
*308 RAM\[4\]\[0\]
*309 RAM\[4\]\[1\]
*310 RAM\[4\]\[2\]
*311 RAM\[4\]\[3\]
*312 RAM\[50\]\[0\]
*313 RAM\[50\]\[1\]
*314 RAM\[50\]\[2\]
*315 RAM\[50\]\[3\]
*316 RAM\[51\]\[0\]
*317 RAM\[51\]\[1\]
*318 RAM\[51\]\[2\]
*319 RAM\[51\]\[3\]
*320 RAM\[52\]\[0\]
*321 RAM\[52\]\[1\]
*322 RAM\[52\]\[2\]
*323 RAM\[52\]\[3\]
*324 RAM\[53\]\[0\]
*325 RAM\[53\]\[1\]
*326 RAM\[53\]\[2\]
*327 RAM\[53\]\[3\]
*328 RAM\[54\]\[0\]
*329 RAM\[54\]\[1\]
*330 RAM\[54\]\[2\]
*331 RAM\[54\]\[3\]
*332 RAM\[55\]\[0\]
*333 RAM\[55\]\[1\]
*334 RAM\[55\]\[2\]
*335 RAM\[55\]\[3\]
*336 RAM\[56\]\[0\]
*337 RAM\[56\]\[1\]
*338 RAM\[56\]\[2\]
*339 RAM\[56\]\[3\]
*340 RAM\[57\]\[0\]
*341 RAM\[57\]\[1\]
*342 RAM\[57\]\[2\]
*343 RAM\[57\]\[3\]
*344 RAM\[58\]\[0\]
*345 RAM\[58\]\[1\]
*346 RAM\[58\]\[2\]
*347 RAM\[58\]\[3\]
*348 RAM\[59\]\[0\]
*349 RAM\[59\]\[1\]
*350 RAM\[59\]\[2\]
*351 RAM\[59\]\[3\]
*352 RAM\[5\]\[0\]
*353 RAM\[5\]\[1\]
*354 RAM\[5\]\[2\]
*355 RAM\[5\]\[3\]
*356 RAM\[60\]\[0\]
*357 RAM\[60\]\[1\]
*358 RAM\[60\]\[2\]
*359 RAM\[60\]\[3\]
*360 RAM\[61\]\[0\]
*361 RAM\[61\]\[1\]
*362 RAM\[61\]\[2\]
*363 RAM\[61\]\[3\]
*364 RAM\[62\]\[0\]
*365 RAM\[62\]\[1\]
*366 RAM\[62\]\[2\]
*367 RAM\[62\]\[3\]
*368 RAM\[63\]\[0\]
*369 RAM\[63\]\[1\]
*370 RAM\[63\]\[2\]
*371 RAM\[63\]\[3\]
*372 RAM\[64\]\[0\]
*373 RAM\[64\]\[1\]
*374 RAM\[64\]\[2\]
*375 RAM\[64\]\[3\]
*376 RAM\[65\]\[0\]
*377 RAM\[65\]\[1\]
*378 RAM\[65\]\[2\]
*379 RAM\[65\]\[3\]
*380 RAM\[66\]\[0\]
*381 RAM\[66\]\[1\]
*382 RAM\[66\]\[2\]
*383 RAM\[66\]\[3\]
*384 RAM\[67\]\[0\]
*385 RAM\[67\]\[1\]
*386 RAM\[67\]\[2\]
*387 RAM\[67\]\[3\]
*388 RAM\[68\]\[0\]
*389 RAM\[68\]\[1\]
*390 RAM\[68\]\[2\]
*391 RAM\[68\]\[3\]
*392 RAM\[69\]\[0\]
*393 RAM\[69\]\[1\]
*394 RAM\[69\]\[2\]
*395 RAM\[69\]\[3\]
*396 RAM\[6\]\[0\]
*397 RAM\[6\]\[1\]
*398 RAM\[6\]\[2\]
*399 RAM\[6\]\[3\]
*400 RAM\[70\]\[0\]
*401 RAM\[70\]\[1\]
*402 RAM\[70\]\[2\]
*403 RAM\[70\]\[3\]
*404 RAM\[71\]\[0\]
*405 RAM\[71\]\[1\]
*406 RAM\[71\]\[2\]
*407 RAM\[71\]\[3\]
*408 RAM\[72\]\[0\]
*409 RAM\[72\]\[1\]
*410 RAM\[72\]\[2\]
*411 RAM\[72\]\[3\]
*412 RAM\[73\]\[0\]
*413 RAM\[73\]\[1\]
*414 RAM\[73\]\[2\]
*415 RAM\[73\]\[3\]
*416 RAM\[74\]\[0\]
*417 RAM\[74\]\[1\]
*418 RAM\[74\]\[2\]
*419 RAM\[74\]\[3\]
*420 RAM\[75\]\[0\]
*421 RAM\[75\]\[1\]
*422 RAM\[75\]\[2\]
*423 RAM\[75\]\[3\]
*424 RAM\[76\]\[0\]
*425 RAM\[76\]\[1\]
*426 RAM\[76\]\[2\]
*427 RAM\[76\]\[3\]
*428 RAM\[77\]\[0\]
*429 RAM\[77\]\[1\]
*430 RAM\[77\]\[2\]
*431 RAM\[77\]\[3\]
*432 RAM\[78\]\[0\]
*433 RAM\[78\]\[1\]
*434 RAM\[78\]\[2\]
*435 RAM\[78\]\[3\]
*436 RAM\[79\]\[0\]
*437 RAM\[79\]\[1\]
*438 RAM\[79\]\[2\]
*439 RAM\[79\]\[3\]
*440 RAM\[7\]\[0\]
*441 RAM\[7\]\[1\]
*442 RAM\[7\]\[2\]
*443 RAM\[7\]\[3\]
*444 RAM\[80\]\[0\]
*445 RAM\[80\]\[1\]
*446 RAM\[80\]\[2\]
*447 RAM\[80\]\[3\]
*448 RAM\[81\]\[0\]
*449 RAM\[81\]\[1\]
*450 RAM\[81\]\[2\]
*451 RAM\[81\]\[3\]
*452 RAM\[82\]\[0\]
*453 RAM\[82\]\[1\]
*454 RAM\[82\]\[2\]
*455 RAM\[82\]\[3\]
*456 RAM\[83\]\[0\]
*457 RAM\[83\]\[1\]
*458 RAM\[83\]\[2\]
*459 RAM\[83\]\[3\]
*460 RAM\[84\]\[0\]
*461 RAM\[84\]\[1\]
*462 RAM\[84\]\[2\]
*463 RAM\[84\]\[3\]
*464 RAM\[85\]\[0\]
*465 RAM\[85\]\[1\]
*466 RAM\[85\]\[2\]
*467 RAM\[85\]\[3\]
*468 RAM\[86\]\[0\]
*469 RAM\[86\]\[1\]
*470 RAM\[86\]\[2\]
*471 RAM\[86\]\[3\]
*472 RAM\[87\]\[0\]
*473 RAM\[87\]\[1\]
*474 RAM\[87\]\[2\]
*475 RAM\[87\]\[3\]
*476 RAM\[88\]\[0\]
*477 RAM\[88\]\[1\]
*478 RAM\[88\]\[2\]
*479 RAM\[88\]\[3\]
*480 RAM\[89\]\[0\]
*481 RAM\[89\]\[1\]
*482 RAM\[89\]\[2\]
*483 RAM\[89\]\[3\]
*484 RAM\[8\]\[0\]
*485 RAM\[8\]\[1\]
*486 RAM\[8\]\[2\]
*487 RAM\[8\]\[3\]
*488 RAM\[90\]\[0\]
*489 RAM\[90\]\[1\]
*490 RAM\[90\]\[2\]
*491 RAM\[90\]\[3\]
*492 RAM\[91\]\[0\]
*493 RAM\[91\]\[1\]
*494 RAM\[91\]\[2\]
*495 RAM\[91\]\[3\]
*496 RAM\[92\]\[0\]
*497 RAM\[92\]\[1\]
*498 RAM\[92\]\[2\]
*499 RAM\[92\]\[3\]
*500 RAM\[93\]\[0\]
*501 RAM\[93\]\[1\]
*502 RAM\[93\]\[2\]
*503 RAM\[93\]\[3\]
*504 RAM\[94\]\[0\]
*505 RAM\[94\]\[1\]
*506 RAM\[94\]\[2\]
*507 RAM\[94\]\[3\]
*508 RAM\[95\]\[0\]
*509 RAM\[95\]\[1\]
*510 RAM\[95\]\[2\]
*511 RAM\[95\]\[3\]
*512 RAM\[96\]\[0\]
*513 RAM\[96\]\[1\]
*514 RAM\[96\]\[2\]
*515 RAM\[96\]\[3\]
*516 RAM\[97\]\[0\]
*517 RAM\[97\]\[1\]
*518 RAM\[97\]\[2\]
*519 RAM\[97\]\[3\]
*520 RAM\[98\]\[0\]
*521 RAM\[98\]\[1\]
*522 RAM\[98\]\[2\]
*523 RAM\[98\]\[3\]
*524 RAM\[99\]\[0\]
*525 RAM\[99\]\[1\]
*526 RAM\[99\]\[2\]
*527 RAM\[99\]\[3\]
*528 RAM\[9\]\[0\]
*529 RAM\[9\]\[1\]
*530 RAM\[9\]\[2\]
*531 RAM\[9\]\[3\]
*532 _0000_
*533 _0001_
*534 _0002_
*535 _0003_
*536 _0004_
*537 _0005_
*538 _0006_
*539 _0007_
*540 _0008_
*541 _0009_
*542 _0010_
*543 _0011_
*544 _0012_
*545 _0013_
*546 _0014_
*547 _0015_
*548 _0016_
*549 _0017_
*550 _0018_
*551 _0019_
*552 _0020_
*553 _0021_
*554 _0022_
*555 _0023_
*556 _0024_
*557 _0025_
*558 _0026_
*559 _0027_
*560 _0028_
*561 _0029_
*562 _0030_
*563 _0031_
*564 _0032_
*565 _0033_
*566 _0034_
*567 _0035_
*568 _0036_
*569 _0037_
*570 _0038_
*571 _0039_
*572 _0040_
*573 _0041_
*574 _0042_
*575 _0043_
*576 _0044_
*577 _0045_
*578 _0046_
*579 _0047_
*580 _0048_
*581 _0049_
*582 _0050_
*583 _0051_
*584 _0052_
*585 _0053_
*586 _0054_
*587 _0055_
*588 _0056_
*589 _0057_
*590 _0058_
*591 _0059_
*592 _0060_
*593 _0061_
*594 _0062_
*595 _0063_
*596 _0064_
*597 _0065_
*598 _0066_
*599 _0067_
*600 _0068_
*601 _0069_
*602 _0070_
*603 _0071_
*604 _0072_
*605 _0073_
*606 _0074_
*607 _0075_
*608 _0076_
*609 _0077_
*610 _0078_
*611 _0079_
*612 _0080_
*613 _0081_
*614 _0082_
*615 _0083_
*616 _0084_
*617 _0085_
*618 _0086_
*619 _0087_
*620 _0088_
*621 _0089_
*622 _0090_
*623 _0091_
*624 _0092_
*625 _0093_
*626 _0094_
*627 _0095_
*628 _0096_
*629 _0097_
*630 _0098_
*631 _0099_
*632 _0100_
*633 _0101_
*634 _0102_
*635 _0103_
*636 _0104_
*637 _0105_
*638 _0106_
*639 _0107_
*640 _0108_
*641 _0109_
*642 _0110_
*643 _0111_
*644 _0112_
*645 _0113_
*646 _0114_
*647 _0115_
*648 _0116_
*649 _0117_
*650 _0118_
*651 _0119_
*652 _0120_
*653 _0121_
*654 _0122_
*655 _0123_
*656 _0124_
*657 _0125_
*658 _0126_
*659 _0127_
*660 _0128_
*661 _0129_
*662 _0130_
*663 _0131_
*664 _0132_
*665 _0133_
*666 _0134_
*667 _0135_
*668 _0136_
*669 _0137_
*670 _0138_
*671 _0139_
*672 _0140_
*673 _0141_
*674 _0142_
*675 _0143_
*676 _0144_
*677 _0145_
*678 _0146_
*679 _0147_
*680 _0148_
*681 _0149_
*682 _0150_
*683 _0151_
*684 _0152_
*685 _0153_
*686 _0154_
*687 _0155_
*688 _0156_
*689 _0157_
*690 _0158_
*691 _0159_
*692 _0160_
*693 _0161_
*694 _0162_
*695 _0163_
*696 _0164_
*697 _0165_
*698 _0166_
*699 _0167_
*700 _0168_
*701 _0169_
*702 _0170_
*703 _0171_
*704 _0172_
*705 _0173_
*706 _0174_
*707 _0175_
*708 _0176_
*709 _0177_
*710 _0178_
*711 _0179_
*712 _0180_
*713 _0181_
*714 _0182_
*715 _0183_
*716 _0184_
*717 _0185_
*718 _0186_
*719 _0187_
*720 _0188_
*721 _0189_
*722 _0190_
*723 _0191_
*724 _0192_
*725 _0193_
*726 _0194_
*727 _0195_
*728 _0196_
*729 _0197_
*730 _0198_
*731 _0199_
*732 _0200_
*733 _0201_
*734 _0202_
*735 _0203_
*736 _0204_
*737 _0205_
*738 _0206_
*739 _0207_
*740 _0208_
*741 _0209_
*742 _0210_
*743 _0211_
*744 _0212_
*745 _0213_
*746 _0214_
*747 _0215_
*748 _0216_
*749 _0217_
*750 _0218_
*751 _0219_
*752 _0220_
*753 _0221_
*754 _0222_
*755 _0223_
*756 _0224_
*757 _0225_
*758 _0226_
*759 _0227_
*760 _0228_
*761 _0229_
*762 _0230_
*763 _0231_
*764 _0232_
*765 _0233_
*766 _0234_
*767 _0235_
*768 _0236_
*769 _0237_
*770 _0238_
*771 _0239_
*772 _0240_
*773 _0241_
*774 _0242_
*775 _0243_
*776 _0244_
*777 _0245_
*778 _0246_
*779 _0247_
*780 _0248_
*781 _0249_
*782 _0250_
*783 _0251_
*784 _0252_
*785 _0253_
*786 _0254_
*787 _0255_
*788 _0256_
*789 _0257_
*790 _0258_
*791 _0259_
*792 _0260_
*793 _0261_
*794 _0262_
*795 _0263_
*796 _0264_
*797 _0265_
*798 _0266_
*799 _0267_
*800 _0268_
*801 _0269_
*802 _0270_
*803 _0271_
*804 _0272_
*805 _0273_
*806 _0274_
*807 _0275_
*808 _0276_
*809 _0277_
*810 _0278_
*811 _0279_
*812 _0280_
*813 _0281_
*814 _0282_
*815 _0283_
*816 _0284_
*817 _0285_
*818 _0286_
*819 _0287_
*820 _0288_
*821 _0289_
*822 _0290_
*823 _0291_
*824 _0292_
*825 _0293_
*826 _0294_
*827 _0295_
*828 _0296_
*829 _0297_
*830 _0298_
*831 _0299_
*832 _0300_
*833 _0301_
*834 _0302_
*835 _0303_
*836 _0304_
*837 _0305_
*838 _0306_
*839 _0307_
*840 _0308_
*841 _0309_
*842 _0310_
*843 _0311_
*844 _0312_
*845 _0313_
*846 _0314_
*847 _0315_
*848 _0316_
*849 _0317_
*850 _0318_
*851 _0319_
*852 _0320_
*853 _0321_
*854 _0322_
*855 _0323_
*856 _0324_
*857 _0325_
*858 _0326_
*859 _0327_
*860 _0328_
*861 _0329_
*862 _0330_
*863 _0331_
*864 _0332_
*865 _0333_
*866 _0334_
*867 _0335_
*868 _0336_
*869 _0337_
*870 _0338_
*871 _0339_
*872 _0340_
*873 _0341_
*874 _0342_
*875 _0343_
*876 _0344_
*877 _0345_
*878 _0346_
*879 _0347_
*880 _0348_
*881 _0349_
*882 _0350_
*883 _0351_
*884 _0352_
*885 _0353_
*886 _0354_
*887 _0355_
*888 _0356_
*889 _0357_
*890 _0358_
*891 _0359_
*892 _0360_
*893 _0361_
*894 _0362_
*895 _0363_
*896 _0364_
*897 _0365_
*898 _0366_
*899 _0367_
*900 _0368_
*901 _0369_
*902 _0370_
*903 _0371_
*904 _0372_
*905 _0373_
*906 _0374_
*907 _0375_
*908 _0376_
*909 _0377_
*910 _0378_
*911 _0379_
*912 _0380_
*913 _0381_
*914 _0382_
*915 _0383_
*916 _0384_
*917 _0385_
*918 _0386_
*919 _0387_
*920 _0388_
*921 _0389_
*922 _0390_
*923 _0391_
*924 _0392_
*925 _0393_
*926 _0394_
*927 _0395_
*928 _0396_
*929 _0397_
*930 _0398_
*931 _0399_
*932 _0400_
*933 _0401_
*934 _0402_
*935 _0403_
*936 _0404_
*937 _0405_
*938 _0406_
*939 _0407_
*940 _0408_
*941 _0409_
*942 _0410_
*943 _0411_
*944 _0412_
*945 _0413_
*946 _0414_
*947 _0415_
*948 _0416_
*949 _0417_
*950 _0418_
*951 _0419_
*952 _0420_
*953 _0421_
*954 _0422_
*955 _0423_
*956 _0424_
*957 _0425_
*958 _0426_
*959 _0427_
*960 _0428_
*961 _0429_
*962 _0430_
*963 _0431_
*964 _0432_
*965 _0433_
*966 _0434_
*967 _0435_
*968 _0436_
*969 _0437_
*970 _0438_
*971 _0439_
*972 _0440_
*973 _0441_
*974 _0442_
*975 _0443_
*976 _0444_
*977 _0445_
*978 _0446_
*979 _0447_
*980 _0448_
*981 _0449_
*982 _0450_
*983 _0451_
*984 _0452_
*985 _0453_
*986 _0454_
*987 _0455_
*988 _0456_
*989 _0457_
*990 _0458_
*991 _0459_
*992 _0460_
*993 _0461_
*994 _0462_
*995 _0463_
*996 _0464_
*997 _0465_
*998 _0466_
*999 _0467_
*1000 _0468_
*1001 _0469_
*1002 _0470_
*1003 _0471_
*1004 _0472_
*1005 _0473_
*1006 _0474_
*1007 _0475_
*1008 _0476_
*1009 _0477_
*1010 _0478_
*1011 _0479_
*1012 _0480_
*1013 _0481_
*1014 _0482_
*1015 _0483_
*1016 _0484_
*1017 _0485_
*1018 _0486_
*1019 _0487_
*1020 _0488_
*1021 _0489_
*1022 _0490_
*1023 _0491_
*1024 _0492_
*1025 _0493_
*1026 _0494_
*1027 _0495_
*1028 _0496_
*1029 _0497_
*1030 _0498_
*1031 _0499_
*1032 _0500_
*1033 _0501_
*1034 _0502_
*1035 _0503_
*1036 _0504_
*1037 _0505_
*1038 _0506_
*1039 _0507_
*1040 _0508_
*1041 _0509_
*1042 _0510_
*1043 _0511_
*1044 _0512_
*1045 _0513_
*1046 _0514_
*1047 _0515_
*1048 _0516_
*1049 _0517_
*1050 _0518_
*1051 _0519_
*1052 _0520_
*1053 _0521_
*1054 _0522_
*1055 _0523_
*1056 _0524_
*1057 _0525_
*1058 _0526_
*1059 _0527_
*1060 _0528_
*1061 _0529_
*1062 _0530_
*1063 _0531_
*1064 _0532_
*1065 _0533_
*1066 _0534_
*1067 _0535_
*1068 _0536_
*1069 _0537_
*1070 _0538_
*1071 _0539_
*1072 _0540_
*1073 _0541_
*1074 _0542_
*1075 _0543_
*1076 _0544_
*1077 _0545_
*1078 _0546_
*1079 _0547_
*1080 _0548_
*1081 _0549_
*1082 _0550_
*1083 _0551_
*1084 _0552_
*1085 _0553_
*1086 _0554_
*1087 _0555_
*1088 _0556_
*1089 _0557_
*1090 _0558_
*1091 _0559_
*1092 _0560_
*1093 _0561_
*1094 _0562_
*1095 _0563_
*1096 _0564_
*1097 _0565_
*1098 _0566_
*1099 _0567_
*1100 _0568_
*1101 _0569_
*1102 _0570_
*1103 _0571_
*1104 _0572_
*1105 _0573_
*1106 _0574_
*1107 _0575_
*1108 _0576_
*1109 _0577_
*1110 _0578_
*1111 _0579_
*1112 _0580_
*1113 _0581_
*1114 _0582_
*1115 _0583_
*1116 _0584_
*1117 _0585_
*1118 _0586_
*1119 _0587_
*1120 _0588_
*1121 _0589_
*1122 _0590_
*1123 _0591_
*1124 _0592_
*1125 _0593_
*1126 _0594_
*1127 _0595_
*1128 _0596_
*1129 _0597_
*1130 _0598_
*1131 _0599_
*1132 _0600_
*1133 _0601_
*1134 _0602_
*1135 _0603_
*1136 _0604_
*1137 _0605_
*1138 _0606_
*1139 _0607_
*1140 _0608_
*1141 _0609_
*1142 _0610_
*1143 _0611_
*1144 _0612_
*1145 _0613_
*1146 _0614_
*1147 _0615_
*1148 _0616_
*1149 _0617_
*1150 _0618_
*1151 _0619_
*1152 _0620_
*1153 _0621_
*1154 _0622_
*1155 _0623_
*1156 _0624_
*1157 _0625_
*1158 _0626_
*1159 _0627_
*1160 _0628_
*1161 _0629_
*1162 _0630_
*1163 _0631_
*1164 _0632_
*1165 _0633_
*1166 _0634_
*1167 _0635_
*1168 _0636_
*1169 _0637_
*1170 _0638_
*1171 _0639_
*1172 _0640_
*1173 _0641_
*1174 _0642_
*1175 _0643_
*1176 _0644_
*1177 _0645_
*1178 _0646_
*1179 _0647_
*1180 _0648_
*1181 _0649_
*1182 _0650_
*1183 _0651_
*1184 _0652_
*1185 _0653_
*1186 _0654_
*1187 _0655_
*1188 _0656_
*1189 _0657_
*1190 _0658_
*1191 _0659_
*1192 _0660_
*1193 _0661_
*1194 _0662_
*1195 _0663_
*1196 _0664_
*1197 _0665_
*1198 _0666_
*1199 _0667_
*1200 _0668_
*1201 _0669_
*1202 _0670_
*1203 _0671_
*1204 _0672_
*1205 _0673_
*1206 _0674_
*1207 _0675_
*1208 _0676_
*1209 _0677_
*1210 _0678_
*1211 _0679_
*1212 _0680_
*1213 _0681_
*1214 _0682_
*1215 _0683_
*1216 _0684_
*1217 _0685_
*1218 _0686_
*1219 _0687_
*1220 _0688_
*1221 _0689_
*1222 _0690_
*1223 _0691_
*1224 _0692_
*1225 _0693_
*1226 _0694_
*1227 _0695_
*1228 _0696_
*1229 _0697_
*1230 _0698_
*1231 _0699_
*1232 _0700_
*1233 _0701_
*1234 _0702_
*1235 _0703_
*1236 _0704_
*1237 _0705_
*1238 _0706_
*1239 _0707_
*1240 _0708_
*1241 _0709_
*1242 _0710_
*1243 _0711_
*1244 _0712_
*1245 _0713_
*1246 _0714_
*1247 _0715_
*1248 _0716_
*1249 _0717_
*1250 _0718_
*1251 _0719_
*1252 _0720_
*1253 _0721_
*1254 _0722_
*1255 _0723_
*1256 _0724_
*1257 _0725_
*1258 _0726_
*1259 _0727_
*1260 _0728_
*1261 _0729_
*1262 _0730_
*1263 _0731_
*1264 _0732_
*1265 _0733_
*1266 _0734_
*1267 _0735_
*1268 _0736_
*1269 _0737_
*1270 _0738_
*1271 _0739_
*1272 _0740_
*1273 _0741_
*1274 _0742_
*1275 _0743_
*1276 _0744_
*1277 _0745_
*1278 _0746_
*1279 _0747_
*1280 _0748_
*1281 _0749_
*1282 _0750_
*1283 _0751_
*1284 _0752_
*1285 _0753_
*1286 _0754_
*1287 _0755_
*1288 _0756_
*1289 _0757_
*1290 _0758_
*1291 _0759_
*1292 _0760_
*1293 _0761_
*1294 _0762_
*1295 _0763_
*1296 _0764_
*1297 _0765_
*1298 _0766_
*1299 _0767_
*1300 _0768_
*1301 _0769_
*1302 _0770_
*1303 _0771_
*1304 _0772_
*1305 _0773_
*1306 _0774_
*1307 _0775_
*1308 _0776_
*1309 _0777_
*1310 _0778_
*1311 _0779_
*1312 _0780_
*1313 _0781_
*1314 _0782_
*1315 _0783_
*1316 _0784_
*1317 _0785_
*1318 _0786_
*1319 _0787_
*1320 _0788_
*1321 _0789_
*1322 _0790_
*1323 _0791_
*1324 _0792_
*1325 _0793_
*1326 _0794_
*1327 _0795_
*1328 _0796_
*1329 _0797_
*1330 _0798_
*1331 _0799_
*1332 _0800_
*1333 _0801_
*1334 _0802_
*1335 _0803_
*1336 _0804_
*1337 _0805_
*1338 _0806_
*1339 _0807_
*1340 _0808_
*1341 _0809_
*1342 _0810_
*1343 _0811_
*1344 _0812_
*1345 _0813_
*1346 _0814_
*1347 _0815_
*1348 _0816_
*1349 _0817_
*1350 _0818_
*1351 _0819_
*1352 _0820_
*1353 _0821_
*1354 _0822_
*1355 _0823_
*1356 _0824_
*1357 _0825_
*1358 _0826_
*1359 _0827_
*1360 _0828_
*1361 _0829_
*1362 _0830_
*1363 _0831_
*1364 _0832_
*1365 _0833_
*1366 _0834_
*1367 _0835_
*1368 _0836_
*1369 _0837_
*1370 _0838_
*1371 _0839_
*1372 _0840_
*1373 _0841_
*1374 _0842_
*1375 _0843_
*1376 _0844_
*1377 _0845_
*1378 _0846_
*1379 _0847_
*1380 _0848_
*1381 _0849_
*1382 _0850_
*1383 _0851_
*1384 _0852_
*1385 _0853_
*1386 _0854_
*1387 _0855_
*1388 _0856_
*1389 _0857_
*1390 _0858_
*1391 _0859_
*1392 _0860_
*1393 _0861_
*1394 _0862_
*1395 _0863_
*1396 _0864_
*1397 _0865_
*1398 _0866_
*1399 _0867_
*1400 _0868_
*1401 _0869_
*1402 _0870_
*1403 _0871_
*1404 _0872_
*1405 _0873_
*1406 _0874_
*1407 _0875_
*1408 _0876_
*1409 _0877_
*1410 _0878_
*1411 _0879_
*1412 _0880_
*1413 _0881_
*1414 _0882_
*1415 _0883_
*1416 _0884_
*1417 _0885_
*1418 _0886_
*1419 _0887_
*1420 _0888_
*1421 _0889_
*1422 _0890_
*1423 _0891_
*1424 _0892_
*1425 _0893_
*1426 _0894_
*1427 _0895_
*1428 _0896_
*1429 _0897_
*1430 _0898_
*1431 _0899_
*1432 _0900_
*1433 _0901_
*1434 _0902_
*1435 _0903_
*1436 _0904_
*1437 _0905_
*1438 _0906_
*1439 _0907_
*1440 _0908_
*1441 _0909_
*1442 _0910_
*1443 _0911_
*1444 _0912_
*1445 _0913_
*1446 _0914_
*1447 _0915_
*1448 _0916_
*1449 _0917_
*1450 _0918_
*1451 _0919_
*1452 _0920_
*1453 _0921_
*1454 _0922_
*1455 _0923_
*1456 _0924_
*1457 _0925_
*1458 _0926_
*1459 _0927_
*1460 _0928_
*1461 _0929_
*1462 _0930_
*1463 _0931_
*1464 _0932_
*1465 _0933_
*1466 _0934_
*1467 _0935_
*1468 _0936_
*1469 _0937_
*1470 _0938_
*1471 _0939_
*1472 _0940_
*1473 _0941_
*1474 _0942_
*1475 _0943_
*1476 _0944_
*1477 _0945_
*1478 _0946_
*1479 _0947_
*1480 _0948_
*1481 _0949_
*1482 _0950_
*1483 _0951_
*1484 _0952_
*1485 _0953_
*1486 _0954_
*1487 _0955_
*1488 _0956_
*1489 _0957_
*1490 _0958_
*1491 _0959_
*1492 _0960_
*1493 _0961_
*1494 _0962_
*1495 _0963_
*1496 _0964_
*1497 _0965_
*1498 _0966_
*1499 _0967_
*1500 _0968_
*1501 _0969_
*1502 _0970_
*1503 _0971_
*1504 _0972_
*1505 _0973_
*1506 _0974_
*1507 _0975_
*1508 _0976_
*1509 _0977_
*1510 _0978_
*1511 _0979_
*1512 _0980_
*1513 _0981_
*1514 _0982_
*1515 _0983_
*1516 _0984_
*1517 _0985_
*1518 _0986_
*1519 _0987_
*1520 _0988_
*1521 _0989_
*1522 _0990_
*1523 clknet_0_clk
*1524 clknet_2_0__leaf_clk
*1525 clknet_2_1__leaf_clk
*1526 clknet_2_2__leaf_clk
*1527 clknet_2_3__leaf_clk
*1528 clknet_leaf_0_clk
*1529 clknet_leaf_10_clk
*1530 clknet_leaf_11_clk
*1531 clknet_leaf_12_clk
*1532 clknet_leaf_13_clk
*1533 clknet_leaf_14_clk
*1534 clknet_leaf_15_clk
*1535 clknet_leaf_16_clk
*1536 clknet_leaf_17_clk
*1537 clknet_leaf_18_clk
*1538 clknet_leaf_19_clk
*1539 clknet_leaf_1_clk
*1540 clknet_leaf_20_clk
*1541 clknet_leaf_21_clk
*1542 clknet_leaf_22_clk
*1543 clknet_leaf_23_clk
*1544 clknet_leaf_24_clk
*1545 clknet_leaf_25_clk
*1546 clknet_leaf_26_clk
*1547 clknet_leaf_27_clk
*1548 clknet_leaf_28_clk
*1549 clknet_leaf_29_clk
*1550 clknet_leaf_2_clk
*1551 clknet_leaf_30_clk
*1552 clknet_leaf_31_clk
*1553 clknet_leaf_32_clk
*1554 clknet_leaf_33_clk
*1555 clknet_leaf_34_clk
*1556 clknet_leaf_35_clk
*1557 clknet_leaf_36_clk
*1558 clknet_leaf_37_clk
*1559 clknet_leaf_38_clk
*1560 clknet_leaf_39_clk
*1561 clknet_leaf_3_clk
*1562 clknet_leaf_40_clk
*1563 clknet_leaf_41_clk
*1564 clknet_leaf_42_clk
*1565 clknet_leaf_43_clk
*1566 clknet_leaf_44_clk
*1567 clknet_leaf_4_clk
*1568 clknet_leaf_5_clk
*1569 clknet_leaf_6_clk
*1570 clknet_leaf_7_clk
*1571 clknet_leaf_8_clk
*1572 clknet_leaf_9_clk
*1573 net1
*1574 net10
*1575 net100
*1576 net101
*1577 net102
*1578 net103
*1579 net104
*1580 net105
*1581 net106
*1582 net107
*1583 net108
*1584 net109
*1585 net11
*1586 net110
*1587 net111
*1588 net112
*1589 net113
*1590 net114
*1591 net115
*1592 net116
*1593 net117
*1594 net118
*1595 net119
*1596 net12
*1597 net120
*1598 net121
*1599 net122
*1600 net123
*1601 net124
*1602 net125
*1603 net126
*1604 net127
*1605 net128
*1606 net129
*1607 net13
*1608 net130
*1609 net131
*1610 net132
*1611 net133
*1612 net134
*1613 net135
*1614 net136
*1615 net137
*1616 net138
*1617 net139
*1618 net14
*1619 net140
*1620 net141
*1621 net142
*1622 net143
*1623 net144
*1624 net145
*1625 net146
*1626 net147
*1627 net148
*1628 net15
*1629 net16
*1630 net17
*1631 net18
*1632 net19
*1633 net2
*1634 net20
*1635 net21
*1636 net22
*1637 net23
*1638 net24
*1639 net25
*1640 net26
*1641 net27
*1642 net28
*1643 net29
*1644 net3
*1645 net30
*1646 net31
*1647 net32
*1648 net33
*1649 net34
*1650 net35
*1651 net36
*1652 net37
*1653 net38
*1654 net39
*1655 net4
*1656 net40
*1657 net41
*1658 net42
*1659 net43
*1660 net44
*1661 net45
*1662 net46
*1663 net47
*1664 net48
*1665 net49
*1666 net5
*1667 net50
*1668 net51
*1669 net52
*1670 net53
*1671 net54
*1672 net55
*1673 net56
*1674 net57
*1675 net58
*1676 net59
*1677 net6
*1678 net60
*1679 net61
*1680 net62
*1681 net63
*1682 net64
*1683 net65
*1684 net66
*1685 net67
*1686 net68
*1687 net69
*1688 net7
*1689 net70
*1690 net71
*1691 net72
*1692 net73
*1693 net74
*1694 net75
*1695 net76
*1696 net77
*1697 net78
*1698 net79
*1699 net8
*1700 net80
*1701 net81
*1702 net82
*1703 net83
*1704 net84
*1705 net85
*1706 net86
*1707 net87
*1708 net88
*1709 net89
*1710 net9
*1711 net90
*1712 net91
*1713 net92
*1714 net93
*1715 net94
*1716 net95
*1717 net96
*1718 net97
*1719 net98
*1720 net99
*1721 ANTENNA__0991__A
*1722 ANTENNA__0993__A
*1723 ANTENNA__0994__A
*1724 ANTENNA__0994__B
*1725 ANTENNA__0995__A
*1726 ANTENNA__0995__B
*1727 ANTENNA__0998__A1
*1728 ANTENNA__0998__B1
*1729 ANTENNA__0999__A1
*1730 ANTENNA__1000__S0
*1731 ANTENNA__1000__S1
*1732 ANTENNA__1001__A
*1733 ANTENNA__1002__S0
*1734 ANTENNA__1005__A1
*1735 ANTENNA__1005__B1
*1736 ANTENNA__1007__A1
*1737 ANTENNA__1007__B1
*1738 ANTENNA__1008__A1
*1739 ANTENNA__1010__A
*1740 ANTENNA__1010__B
*1741 ANTENNA__1011__A_N
*1742 ANTENNA__1011__B
*1743 ANTENNA__1012__A_N
*1744 ANTENNA__1012__B
*1745 ANTENNA__1013__A
*1746 ANTENNA__1013__B
*1747 ANTENNA__1014__A
*1748 ANTENNA__1014__B
*1749 ANTENNA__1015__S0
*1750 ANTENNA__1015__S1
*1751 ANTENNA__1017__A
*1752 ANTENNA__1017__B
*1753 ANTENNA__1018__A
*1754 ANTENNA__1018__B
*1755 ANTENNA__1019__S0
*1756 ANTENNA__1020__A
*1757 ANTENNA__1020__B
*1758 ANTENNA__1021__A_N
*1759 ANTENNA__1021__B
*1760 ANTENNA__1022__S0
*1761 ANTENNA__1023__A
*1762 ANTENNA__1023__B
*1763 ANTENNA__1024__A
*1764 ANTENNA__1024__B
*1765 ANTENNA__1025__S0
*1766 ANTENNA__1025__S1
*1767 ANTENNA__1026__A1
*1768 ANTENNA__1026__B1
*1769 ANTENNA__1027__A1
*1770 ANTENNA__1028__S
*1771 ANTENNA__1030__S
*1772 ANTENNA__1031__A
*1773 ANTENNA__1032__S0
*1774 ANTENNA__1032__S1
*1775 ANTENNA__1033__A1
*1776 ANTENNA__1033__B2
*1777 ANTENNA__1034__S1
*1778 ANTENNA__1035__S0
*1779 ANTENNA__1036__A1
*1780 ANTENNA__1036__B2
*1781 ANTENNA__1037__A_N
*1782 ANTENNA__1037__B
*1783 ANTENNA__1038__A_N
*1784 ANTENNA__1038__B
*1785 ANTENNA__1039__B1
*1786 ANTENNA__1040__A_N
*1787 ANTENNA__1040__B
*1788 ANTENNA__1041__S0
*1789 ANTENNA__1041__S1
*1790 ANTENNA__1042__S0
*1791 ANTENNA__1042__S1
*1792 ANTENNA__1043__A1
*1793 ANTENNA__1043__B2
*1794 ANTENNA__1044__S0
*1795 ANTENNA__1044__S1
*1796 ANTENNA__1045__S0
*1797 ANTENNA__1045__S1
*1798 ANTENNA__1046__A1
*1799 ANTENNA__1046__B2
*1800 ANTENNA__1047__B1_N
*1801 ANTENNA__1049__S1
*1802 ANTENNA__1050__S0
*1803 ANTENNA__1050__S1
*1804 ANTENNA__1051__S0
*1805 ANTENNA__1051__S1
*1806 ANTENNA__1052__A
*1807 ANTENNA__1053__A1
*1808 ANTENNA__1053__C1
*1809 ANTENNA__1054__S1
*1810 ANTENNA__1055__A1
*1811 ANTENNA__1055__B2
*1812 ANTENNA__1056__S0
*1813 ANTENNA__1056__S1
*1814 ANTENNA__1057__S0
*1815 ANTENNA__1057__S1
*1816 ANTENNA__1058__B2
*1817 ANTENNA__1059__S1
*1818 ANTENNA__1060__S1
*1819 ANTENNA__1061__A1
*1820 ANTENNA__1061__B2
*1821 ANTENNA__1062__B1_N
*1822 ANTENNA__1063__A1
*1823 ANTENNA__1063__C1
*1824 ANTENNA__1064__S
*1825 ANTENNA__1065__A
*1826 ANTENNA__1066__S
*1827 ANTENNA__1067__A1
*1828 ANTENNA__1067__C1
*1829 ANTENNA__1068__S0
*1830 ANTENNA__1068__S1
*1831 ANTENNA__1069__A1
*1832 ANTENNA__1069__B1_N
*1833 ANTENNA__1070__S0
*1834 ANTENNA__1070__S1
*1835 ANTENNA__1071__A
*1836 ANTENNA__1072__S
*1837 ANTENNA__1073__S
*1838 ANTENNA__1074__A1
*1839 ANTENNA__1074__B1
*1840 ANTENNA__1075__A1
*1841 ANTENNA__1076__A1
*1842 ANTENNA__1077__S0
*1843 ANTENNA__1077__S1
*1844 ANTENNA__1078__S0
*1845 ANTENNA__1078__S1
*1846 ANTENNA__1079__A1
*1847 ANTENNA__1079__B2
*1848 ANTENNA__1080__S0
*1849 ANTENNA__1080__S1
*1850 ANTENNA__1081__S0
*1851 ANTENNA__1081__S1
*1852 ANTENNA__1082__A1
*1853 ANTENNA__1082__B2
*1854 ANTENNA__1083__B1_N
*1855 ANTENNA__1084__A2
*1856 ANTENNA__1085__B2
*1857 ANTENNA__1086__S0
*1858 ANTENNA__1086__S1
*1859 ANTENNA__1087__S0
*1860 ANTENNA__1087__S1
*1861 ANTENNA__1088__S0
*1862 ANTENNA__1088__S1
*1863 ANTENNA__1089__S0
*1864 ANTENNA__1090__S0
*1865 ANTENNA__1090__S1
*1866 ANTENNA__1091__S1
*1867 ANTENNA__1092__S0
*1868 ANTENNA__1092__S1
*1869 ANTENNA__1093__B2
*1870 ANTENNA__1094__S1
*1871 ANTENNA__1095__S1
*1872 ANTENNA__1096__A1
*1873 ANTENNA__1096__B2
*1874 ANTENNA__1097__A1
*1875 ANTENNA__1097__B1
*1876 ANTENNA__1098__A1
*1877 ANTENNA__1099__S
*1878 ANTENNA__1102__A1