*SPEF "ieee 1481-1999"
*DESIGN "wb_decode"
*DATE "11:11:11 Fri 11 11, 1111"
*VENDOR "OpenRCX"
*PROGRAM "Parallel Extraction"
*VERSION "1.0"
*DESIGN_FLOW "NAME_SCOPE LOCAL" "PIN_CAP NONE"
*DIVIDER /
*DELIMITER :
*BUS_DELIMITER []
*T_UNIT 1 NS
*C_UNIT 1 PF
*R_UNIT 1 OHM
*L_UNIT 1 HENRY

*NAME_MAP
*1 ram_adrb[0]
*2 ram_adrb[1]
*3 ram_adrb[2]
*4 ram_adrb[3]
*5 ram_adrb[4]
*6 ram_adrb[5]
*7 ram_adrb[6]
*8 ram_adrb[7]
*9 ram_adrb[8]
*10 ram_csb
*11 ram_web
*14 wb_clk_i
*15 wbs_adr_i[0]
*16 wbs_adr_i[10]
*17 wbs_adr_i[11]
*18 wbs_adr_i[12]
*19 wbs_adr_i[13]
*20 wbs_adr_i[14]
*21 wbs_adr_i[15]
*22 wbs_adr_i[16]
*23 wbs_adr_i[17]
*24 wbs_adr_i[18]
*25 wbs_adr_i[19]
*26 wbs_adr_i[1]
*27 wbs_adr_i[20]
*28 wbs_adr_i[21]
*29 wbs_adr_i[22]
*30 wbs_adr_i[23]
*31 wbs_adr_i[24]
*32 wbs_adr_i[25]
*33 wbs_adr_i[26]
*34 wbs_adr_i[27]
*35 wbs_adr_i[28]
*36 wbs_adr_i[29]
*37 wbs_adr_i[2]
*38 wbs_adr_i[30]
*39 wbs_adr_i[31]
*40 wbs_adr_i[3]
*41 wbs_adr_i[4]
*42 wbs_adr_i[5]
*43 wbs_adr_i[6]
*44 wbs_adr_i[7]
*45 wbs_adr_i[8]
*46 wbs_adr_i[9]
*47 wbs_we_i
*48 net1
*49 net10
*50 net11
*51 net12
*52 net13
*53 net14
*54 net15
*55 net16
*56 net17
*57 net18
*58 net19
*59 net2
*60 net20
*61 net21
*62 net22
*63 net3
*64 net4
*65 net5
*66 net6
*67 net7
*68 net8
*69 net9
*70 ANTENNA_input10_A
*71 ANTENNA_input11_A
*72 ANTENNA_input1_A
*73 ANTENNA_input2_A
*74 ANTENNA_input3_A
*75 ANTENNA_input4_A
*76 ANTENNA_input5_A
*77 ANTENNA_input6_A
*78 ANTENNA_input7_A
*79 ANTENNA_input8_A
*80 ANTENNA_input9_A
*81 FILLER_0_102
*82 FILLER_0_109
*83 FILLER_0_113
*84 FILLER_0_119
*85 FILLER_0_124
*86 FILLER_0_132
*87 FILLER_0_138
*88 FILLER_0_141
*89 FILLER_0_145
*90 FILLER_0_19
*91 FILLER_0_27
*92 FILLER_0_29
*93 FILLER_0_3
*94 FILLER_0_35
*95 FILLER_0_43
*96 FILLER_0_49
*97 FILLER_0_55
*98 FILLER_0_57
*99 FILLER_0_64
*100 FILLER_0_72
*101 FILLER_0_79
*102 FILLER_0_83
*103 FILLER_0_85
*104 FILLER_0_89
*105 FILLER_0_9
*106 FILLER_0_94
*107 FILLER_1_105
*108 FILLER_1_111
*109 FILLER_1_113
*110 FILLER_1_125
*111 FILLER_1_137
*112 FILLER_1_144
*113 FILLER_1_15
*114 FILLER_1_27
*115 FILLER_1_3
*116 FILLER_1_39
*117 FILLER_1_51
*118 FILLER_1_55
*119 FILLER_1_57
*120 FILLER_1_69
*121 FILLER_1_81
*122 FILLER_1_93
*123 FILLER_2_109
*124 FILLER_2_121
*125 FILLER_2_133
*126 FILLER_2_139
*127 FILLER_2_141
*128 FILLER_2_145
*129 FILLER_2_19
*130 FILLER_2_27
*131 FILLER_2_29
*132 FILLER_2_3
*133 FILLER_2_41
*134 FILLER_2_53
*135 FILLER_2_65
*136 FILLER_2_7
*137 FILLER_2_73
*138 FILLER_2_77
*139 FILLER_2_83
*140 FILLER_2_85
*141 FILLER_2_97
*142 FILLER_3_108
*143 FILLER_3_113
*144 FILLER_3_125
*145 FILLER_3_137
*146 FILLER_3_145
*147 FILLER_3_16
*148 FILLER_3_20
*149 FILLER_3_3
*150 FILLER_3_35
*151 FILLER_3_47
*152 FILLER_3_55
*153 FILLER_3_57
*154 FILLER_3_65
*155 FILLER_3_70
*156 FILLER_3_77
*157 FILLER_3_8
*158 FILLER_3_84
*159 FILLER_3_96
*160 FILLER_4_109
*161 FILLER_4_121
*162 FILLER_4_133
*163 FILLER_4_139
*164 FILLER_4_141
*165 FILLER_4_145
*166 FILLER_4_15
*167 FILLER_4_23
*168 FILLER_4_27
*169 FILLER_4_29
*170 FILLER_4_3
*171 FILLER_4_41
*172 FILLER_4_47
*173 FILLER_4_51
*174 FILLER_4_63
*175 FILLER_4_70
*176 FILLER_4_77
*177 FILLER_4_8
*178 FILLER_4_83
*179 FILLER_4_85
*180 FILLER_4_97
*181 FILLER_5_105
*182 FILLER_5_111
*183 FILLER_5_113
*184 FILLER_5_125
*185 FILLER_5_137
*186 FILLER_5_14
*187 FILLER_5_145
*188 FILLER_5_18
*189 FILLER_5_21
*190 FILLER_5_25
*191 FILLER_5_28
*192 FILLER_5_3
*193 FILLER_5_34
*194 FILLER_5_46
*195 FILLER_5_54
*196 FILLER_5_57
*197 FILLER_5_65
*198 FILLER_5_69
*199 FILLER_5_8
*200 FILLER_5_81
*201 FILLER_5_93
*202 FILLER_6_109
*203 FILLER_6_11
*204 FILLER_6_121
*205 FILLER_6_133
*206 FILLER_6_139
*207 FILLER_6_141
*208 FILLER_6_145
*209 FILLER_6_18
*210 FILLER_6_22
*211 FILLER_6_26
*212 FILLER_6_29
*213 FILLER_6_3
*214 FILLER_6_36
*215 FILLER_6_42
*216 FILLER_6_54
*217 FILLER_6_66
*218 FILLER_6_7
*219 FILLER_6_78
*220 FILLER_6_85
*221 FILLER_6_97
*222 FILLER_7_108
*223 FILLER_7_113
*224 FILLER_7_12
*225 FILLER_7_125
*226 FILLER_7_137
*227 FILLER_7_141
*228 FILLER_7_145
*229 FILLER_7_19
*230 FILLER_7_26
*231 FILLER_7_29
*232 FILLER_7_3
*233 FILLER_7_35
*234 FILLER_7_39
*235 FILLER_7_46
*236 FILLER_7_52
*237 FILLER_7_57
*238 FILLER_7_69
*239 FILLER_7_81
*240 FILLER_7_85
*241 FILLER_7_90
*242 FILLER_7_96
*243 PHY_0
*244 PHY_1
*245 PHY_10
*246 PHY_11
*247 PHY_12
*248 PHY_13
*249 PHY_14
*250 PHY_15
*251 PHY_2
*252 PHY_3
*253 PHY_4
*254 PHY_5
*255 PHY_6
*256 PHY_7
*257 PHY_8
*258 PHY_9
*259 TAP_16
*260 TAP_17
*261 TAP_18
*262 TAP_19
*263 TAP_20
*264 TAP_21
*265 TAP_22
*266 TAP_23
*267 TAP_24
*268 TAP_25
*269 TAP_26
*270 TAP_27
*271 TAP_28
*272 TAP_29
*273 TAP_30
*274 TAP_31
*275 TAP_32
*276 TAP_33
*277 TAP_34
*278 TAP_35
*279 TAP_36
*280 TAP_37
*281 TAP_38
*282 TAP_39
*283 TAP_40
*284 _00_
*285 _01_
*286 _02_
*287 _03_
*288 _04_
*289 _05_
*290 _06_
*291 _07_
*292 _08_
*293 _09_
*294 _10_
*295 input1
*296 input10
*297 input11
*298 input2
*299 input3
*300 input4
*301 input5
*302 input6
*303 input7
*304 input8
*305 input9
*306 output12
*307 output13
*308 output14
*309 output15
*310 output16
*311 output17
*312 output18
*313 output19
*314 output20
*315 output21
*316 output22

*PORTS
ram_adrb[0] O
ram_adrb[1] O
ram_adrb[2] O
ram_adrb[3] O
ram_adrb[4] O
ram_adrb[5] O
ram_adrb[6] O
ram_adrb[7] O
ram_adrb[8] O
ram_csb O
ram_web O
wb_clk_i I
wbs_adr_i[0] I
wbs_adr_i[10] I
wbs_adr_i[11] I
wbs_adr_i[12] I
wbs_adr_i[13] I
wbs_adr_i[14] I
wbs_adr_i[15] I
wbs_adr_i[16] I
wbs_adr_i[17] I
wbs_adr_i[18] I
wbs_adr_i[19] I
wbs_adr_i[1] I
wbs_adr_i[20] I
wbs_adr_i[21] I
wbs_adr_i[22] I
wbs_adr_i[23] I
wbs_adr_i[24] I
wbs_adr_i[25] I
wbs_adr_i[26] I
wbs_adr_i[27] I
wbs_adr_i[28] I
wbs_adr_i[29] I
wbs_adr_i[2] I
wbs_adr_i[30] I
wbs_adr_i[31] I
wbs_adr_i[3] I
wbs_adr_i[4] I
wbs_adr_i[5] I
wbs_adr_i[6] I
wbs_adr_i[7] I
wbs_adr_i[8] I
wbs_adr_i[9] I
wbs_we_i I

*D_NET *1 0.000698765
*CONN
*P ram_adrb[0] O
*I *306:X O *D sky130_fd_sc_hd__buf_2
*CAP
1 ram_adrb[0] 0.000349383
2 *306:X 0.000349383
3 ram_adrb[0] *315:A 0
*RES
1 *306:X ram_adrb[0] 26.9607 
*END

*D_NET *2 0.000659406
*CONN
*P ram_adrb[1] O
*I *307:X O *D sky130_fd_sc_hd__buf_2
*CAP
1 ram_adrb[1] 0.000329703
2 *307:X 0.000329703
3 ram_adrb[1] *315:A 0
*RES
1 *307:X ram_adrb[1] 26.55 
*END

*D_NET *3 0.000659406
*CONN
*P ram_adrb[2] O
*I *308:X O *D sky130_fd_sc_hd__buf_2
*CAP
1 ram_adrb[2] 0.000329703
2 *308:X 0.000329703
3 ram_adrb[2] *315:A 0
*RES
1 *308:X ram_adrb[2] 26.55 
*END

*D_NET *4 0.000696865
*CONN
*P ram_adrb[3] O
*I *309:X O *D sky130_fd_sc_hd__buf_2
*CAP
1 ram_adrb[3] 0.000348432
2 *309:X 0.000348432
*RES
1 *309:X ram_adrb[3] 28.1393 
*END

*D_NET *5 0.000659406
*CONN
*P ram_adrb[4] O
*I *310:X O *D sky130_fd_sc_hd__buf_2
*CAP
1 ram_adrb[4] 0.000329703
2 *310:X 0.000329703
3 ram_adrb[4] *312:A 0
*RES
1 *310:X ram_adrb[4] 26.55 
*END

*D_NET *6 0.000659406
*CONN
*P ram_adrb[5] O
*I *311:X O *D sky130_fd_sc_hd__buf_2
*CAP
1 ram_adrb[5] 0.000329703
2 *311:X 0.000329703
3 ram_adrb[5] *312:A 0
*RES
1 *311:X ram_adrb[5] 26.55 
*END

*D_NET *7 0.000659406
*CONN
*P ram_adrb[6] O
*I *312:X O *D sky130_fd_sc_hd__buf_2
*CAP
1 ram_adrb[6] 0.000329703
2 *312:X 0.000329703
3 ram_adrb[6] *312:A 0
*RES
1 *312:X ram_adrb[6] 26.55 
*END

*D_NET *8 0.000620048
*CONN
*P ram_adrb[7] O
*I *313:X O *D sky130_fd_sc_hd__buf_2
*CAP
1 ram_adrb[7] 0.000310024
2 *313:X 0.000310024
*RES
1 *313:X ram_adrb[7] 26.1393 
*END

*D_NET *9 0.00105272
*CONN
*P ram_adrb[8] O
*I *314:X O *D sky130_fd_sc_hd__buf_2
*CAP
1 ram_adrb[8] 0.000526359
2 *314:X 0.000526359
*RES
1 *314:X ram_adrb[8] 32.3357 
*END

*D_NET *10 0.000816841
*CONN
*P ram_csb O
*I *315:X O *D sky130_fd_sc_hd__buf_2
*CAP
1 ram_csb 0.000408421
2 *315:X 0.000408421
*RES
1 *315:X ram_csb 28.1929 
*END

*D_NET *11 0.000659406
*CONN
*P ram_web O
*I *316:X O *D sky130_fd_sc_hd__buf_2
*CAP
1 ram_web 0.000329703
2 *316:X 0.000329703
3 ram_web *315:A 0
*RES
1 *316:X ram_web 26.55 
*END

*D_NET *15 0.00169
*CONN
*P wbs_adr_i[0] I
*I *295:A I *D sky130_fd_sc_hd__clkbuf_1
*I *72:DIODE I *D sky130_fd_sc_hd__diode_2
*CAP
1 wbs_adr_i[0] 0.00058495
2 *295:A 0
3 *72:DIODE 0.000260047
4 *15:8 0.000844998
5 *72:DIODE *74:DIODE 0
6 *72:DIODE *316:A 0
7 *72:DIODE *47:8 0
8 *72:DIODE *63:11 0
9 *15:8 *74:DIODE 0
10 *15:8 *26:5 0
11 *15:8 *47:8 0
*RES
1 wbs_adr_i[0] *15:8 23.9286 
2 *15:8 *72:DIODE 34.1036 
3 *15:8 *295:A 9.3 
*END

*D_NET *22 0.00115951
*CONN
*P wbs_adr_i[16] I
*I *73:DIODE I *D sky130_fd_sc_hd__diode_2
*I *298:A I *D sky130_fd_sc_hd__clkbuf_1
*CAP
1 wbs_adr_i[16] 0.000478361
2 *73:DIODE 0.000101392
3 *298:A 0
4 *22:8 0.000579753
5 *22:8 *59:11 0
*RES
1 wbs_adr_i[16] *22:8 20.7143 
2 *22:8 *298:A 9.3 
3 *22:8 *73:DIODE 11.4786 
*END

*D_NET *26 0.0014714
*CONN
*P wbs_adr_i[1] I
*I *299:A I *D sky130_fd_sc_hd__clkbuf_1
*I *74:DIODE I *D sky130_fd_sc_hd__diode_2
*CAP
1 wbs_adr_i[1] 0.000437126
2 *299:A 2.56688e-05
3 *74:DIODE 0.000272904
4 *26:5 0.000735699
5 *74:DIODE *75:DIODE 0
6 *74:DIODE *63:11 0
7 *26:5 *75:DIODE 0
8 *26:5 *37:5 0
9 *72:DIODE *74:DIODE 0
10 *15:8 *74:DIODE 0
11 *15:8 *26:5 0
*RES
1 wbs_adr_i[1] *26:5 11.4464 
2 *26:5 *74:DIODE 25.4071 
3 *26:5 *299:A 18.8357 
*END

*D_NET *37 0.00113527
*CONN
*P wbs_adr_i[2] I
*I *300:A I *D sky130_fd_sc_hd__clkbuf_1
*I *75:DIODE I *D sky130_fd_sc_hd__diode_2
*CAP
1 wbs_adr_i[2] 0.000332216
2 *300:A 6.50276e-05
3 *75:DIODE 0.000170393
4 *37:5 0.000567637
5 *75:DIODE *76:DIODE 0
6 *75:DIODE *297:A 0
7 *75:DIODE *63:11 0
8 *300:A *64:11 0
9 *37:5 *40:8 0
10 *74:DIODE *75:DIODE 0
11 *26:5 *75:DIODE 0
12 *26:5 *37:5 0
*RES
1 wbs_adr_i[2] *37:5 8.71429 
2 *37:5 *75:DIODE 22.675 
3 *37:5 *300:A 19.6571 
*END

*D_NET *40 0.00127122
*CONN
*P wbs_adr_i[3] I
*I *301:A I *D sky130_fd_sc_hd__clkbuf_1
*I *76:DIODE I *D sky130_fd_sc_hd__diode_2
*CAP
1 wbs_adr_i[3] 0.000356038
2 *301:A 0
3 *76:DIODE 0.000279569
4 *40:8 0.000635608
5 *76:DIODE *77:DIODE 0
6 *76:DIODE *285:A 0
7 *76:DIODE *297:A 0
8 *76:DIODE *41:5 0
9 *76:DIODE *64:11 0
10 *40:8 *41:5 0
11 *40:8 *64:11 0
12 *75:DIODE *76:DIODE 0
13 *37:5 *40:8 0
*RES
1 wbs_adr_i[3] *40:8 18.25 
2 *40:8 *76:DIODE 33.9786 
3 *40:8 *301:A 9.3 
*END

*D_NET *41 0.00123816
*CONN
*P wbs_adr_i[4] I
*I *302:A I *D sky130_fd_sc_hd__clkbuf_1
*I *77:DIODE I *D sky130_fd_sc_hd__diode_2
*CAP
1 wbs_adr_i[4] 0.000437075
2 *302:A 2.56688e-05
3 *77:DIODE 0.000156337
4 *41:5 0.00061908
5 *77:DIODE *78:DIODE 0
6 *77:DIODE *285:A 0
7 *77:DIODE *64:11 0
8 *41:5 *78:DIODE 0
9 *41:5 *42:5 0
10 *76:DIODE *77:DIODE 0
11 *76:DIODE *41:5 0
12 *40:8 *41:5 0
*RES
1 wbs_adr_i[4] *41:5 11.4464 
2 *41:5 *77:DIODE 22.3714 
3 *41:5 *302:A 18.8357 
*END

*D_NET *42 0.00117463
*CONN
*P wbs_adr_i[5] I
*I *303:A I *D sky130_fd_sc_hd__clkbuf_1
*I *78:DIODE I *D sky130_fd_sc_hd__diode_2
*CAP
1 wbs_adr_i[5] 0.000332216
2 *303:A 8.4707e-05
3 *78:DIODE 0.000170393
4 *42:5 0.000587316
5 *78:DIODE *43:9 0
6 *78:DIODE *64:11 0
7 *303:A *64:11 0
8 *303:A *65:8 0
9 *303:A *67:12 0
10 *42:5 *43:9 0
11 *77:DIODE *78:DIODE 0
12 *41:5 *78:DIODE 0
13 *41:5 *42:5 0
*RES
1 wbs_adr_i[5] *42:5 8.71429 
2 *42:5 *78:DIODE 22.675 
3 *42:5 *303:A 20.0679 
*END

*D_NET *43 0.00105116
*CONN
*P wbs_adr_i[6] I
*I *304:A I *D sky130_fd_sc_hd__clkbuf_1
*I *79:DIODE I *D sky130_fd_sc_hd__diode_2
*CAP
1 wbs_adr_i[6] 0.000462497
2 *304:A 0
3 *79:DIODE 6.30833e-05
4 *43:9 0.00052558
5 *79:DIODE *64:11 0
6 *43:9 *80:DIODE 0
7 *43:9 *44:9 0
8 *43:9 *64:11 0
9 *78:DIODE *43:9 0
10 *42:5 *43:9 0
*RES
1 wbs_adr_i[6] *43:9 12.1071 
2 *43:9 *79:DIODE 19.9429 
3 *43:9 *304:A 18.3 
*END

*D_NET *44 0.00107265
*CONN
*P wbs_adr_i[7] I
*I *305:A I *D sky130_fd_sc_hd__clkbuf_1
*I *80:DIODE I *D sky130_fd_sc_hd__diode_2
*CAP
1 wbs_adr_i[7] 0.000370923
2 *305:A 6.50276e-05
3 *80:DIODE 0.000100374
4 *44:9 0.000536325
5 *80:DIODE *66:8 0
6 *305:A *65:8 0
7 *305:A *67:12 0
8 *44:9 *45:8 0
9 *43:9 *80:DIODE 0
10 *43:9 *44:9 0
*RES
1 wbs_adr_i[7] *44:9 9.78571 
2 *44:9 *80:DIODE 20.7821 
3 *44:9 *305:A 19.6571 
*END

*D_NET *45 0.0010068
*CONN
*P wbs_adr_i[8] I
*I *70:DIODE I *D sky130_fd_sc_hd__diode_2
*I *296:A I *D sky130_fd_sc_hd__clkbuf_1
*CAP
1 wbs_adr_i[8] 0.00036265
2 *70:DIODE 0.00014075
3 *296:A 0
4 *45:8 0.000503401
5 *70:DIODE *65:8 0
6 *70:DIODE *67:12 0
7 *45:8 *65:8 0
8 *45:8 *67:12 0
9 *44:9 *45:8 0
*RES
1 wbs_adr_i[8] *45:8 18.25 
2 *45:8 *296:A 9.3 
3 *45:8 *70:DIODE 12.3 
*END

*D_NET *47 0.00231192
*CONN
*P wbs_we_i I
*I *297:A I *D sky130_fd_sc_hd__clkbuf_1
*I *71:DIODE I *D sky130_fd_sc_hd__diode_2
*CAP
1 wbs_we_i 0.000774167
2 *297:A 0.000381794
3 *71:DIODE 0
4 *47:8 0.00115596
5 *297:A *285:A 0
6 *297:A *316:A 0
7 *297:A *63:11 0
8 *72:DIODE *47:8 0
9 *75:DIODE *297:A 0
10 *76:DIODE *297:A 0
11 *15:8 *47:8 0
*RES
1 wbs_we_i *47:8 28.2143 
2 *47:8 *71:DIODE 9.3 
3 *47:8 *297:A 36.1393 
*END

*D_NET *48 0.000730219
*CONN
*I *286:A I *D sky130_fd_sc_hd__clkbuf_1
*I *295:X O *D sky130_fd_sc_hd__clkbuf_1
*CAP
1 *286:A 0.00036511
2 *295:X 0.00036511
3 *286:A *285:A 0
4 *286:A *316:A 0
5 *286:A *63:11 0
*RES
1 *295:X *286:A 45.0286 
*END

*D_NET *49 0.00206084
*CONN
*I *294:A I *D sky130_fd_sc_hd__clkbuf_1
*I *296:X O *D sky130_fd_sc_hd__clkbuf_1
*CAP
1 *294:A 0.000537333
2 *296:X 0.000493085
3 *49:10 0.00103042
4 *49:10 *307:A 0
5 *49:10 *69:11 0
*RES
1 *296:X *49:10 39.9071 
2 *49:10 *294:A 20.5143 
*END

*D_NET *50 0.000387325
*CONN
*I *285:A I *D sky130_fd_sc_hd__inv_2
*I *297:X O *D sky130_fd_sc_hd__clkbuf_1
*CAP
1 *285:A 0.000193662
2 *297:X 0.000193662
3 *76:DIODE *285:A 0
4 *77:DIODE *285:A 0
5 *286:A *285:A 0
6 *297:A *285:A 0
*RES
1 *297:X *285:A 41.5107 
*END

*D_NET *51 0.00100678
*CONN
*I *306:A I *D sky130_fd_sc_hd__buf_2
*I *286:X O *D sky130_fd_sc_hd__clkbuf_1
*CAP
1 *306:A 0.000503389
2 *286:X 0.000503389
3 *306:A *63:11 0
*RES
1 *286:X *306:A 48.4571 
*END

*D_NET *52 0.00096742
*CONN
*I *307:A I *D sky130_fd_sc_hd__buf_2
*I *287:X O *D sky130_fd_sc_hd__clkbuf_1
*CAP
1 *307:A 0.00048371
2 *287:X 0.00048371
3 *49:10 *307:A 0
*RES
1 *287:X *307:A 48.0464 
*END

*D_NET *53 0.00111457
*CONN
*I *308:A I *D sky130_fd_sc_hd__buf_2
*I *288:X O *D sky130_fd_sc_hd__clkbuf_1
*CAP
1 *308:A 0
2 *288:X 0.000557284
3 *53:10 0.000557284
4 *53:10 *54:9 0
5 *53:10 *61:10 0
*RES
1 *288:X *53:10 40.7643 
2 *53:10 *308:A 9.3 
*END

*D_NET *54 0.001183
*CONN
*I *309:A I *D sky130_fd_sc_hd__buf_2
*I *289:X O *D sky130_fd_sc_hd__clkbuf_1
*CAP
1 *309:A 0
2 *289:X 0.000591499
3 *54:9 0.000591499
4 *54:9 *58:8 0
5 *54:9 *59:11 0
6 *54:9 *61:10 0
7 *54:9 *69:11 0
8 *53:10 *54:9 0
*RES
1 *289:X *54:9 41.9607 
2 *54:9 *309:A 9.3 
*END

*D_NET *55 0.00080971
*CONN
*I *310:A I *D sky130_fd_sc_hd__buf_2
*I *290:X O *D sky130_fd_sc_hd__clkbuf_1
*CAP
1 *310:A 0.000404855
2 *290:X 0.000404855
3 *310:A *57:10 0
4 *310:A *58:12 0
*RES
1 *290:X *310:A 46.4036 
*END

*D_NET *56 0.00186239
*CONN
*I *311:A I *D sky130_fd_sc_hd__buf_2
*I *291:X O *D sky130_fd_sc_hd__clkbuf_1
*CAP
1 *311:A 0
2 *291:X 0.000931193
3 *56:10 0.000931193
*RES
1 *291:X *56:10 48.5679 
2 *56:10 *311:A 9.3 
*END

*D_NET *57 0.002296
*CONN
*I *312:A I *D sky130_fd_sc_hd__buf_2
*I *292:X O *D sky130_fd_sc_hd__clkbuf_1
*CAP
1 *312:A 0.000774342
2 *292:X 0.000373656
3 *57:10 0.001148
4 *57:10 *58:12 0
5 ram_adrb[4] *312:A 0
6 ram_adrb[5] *312:A 0
7 ram_adrb[6] *312:A 0
8 *310:A *57:10 0
*RES
1 *292:X *57:10 36.3893 
2 *57:10 *312:A 25.4607 
*END

*D_NET *58 0.0032889
*CONN
*I *313:A I *D sky130_fd_sc_hd__buf_2
*I *293:X O *D sky130_fd_sc_hd__clkbuf_1
*CAP
1 *313:A 0
2 *293:X 3.97699e-05
3 *58:12 0.00160468
4 *58:8 0.00164445
5 *58:8 *59:11 0
6 *58:12 *292:A 0
7 *58:12 *59:11 0
8 *58:12 *60:8 0
9 *310:A *58:12 0
10 *54:9 *58:8 0
11 *57:10 *58:12 0
*RES
1 *293:X *58:8 28.3357 
2 *58:8 *58:12 44.1429 
3 *58:12 *313:A 18.3 
*END

*D_NET *59 0.0014181
*CONN
*I *284:A I *D sky130_fd_sc_hd__inv_2
*I *298:X O *D sky130_fd_sc_hd__clkbuf_1
*CAP
1 *284:A 0
2 *298:X 0.000709052
3 *59:11 0.000709052
4 *59:11 *65:8 0
5 *59:11 *68:10 0
6 *59:11 *69:11 0
7 *22:8 *59:11 0
8 *54:9 *59:11 0
9 *58:8 *59:11 0
10 *58:12 *59:11 0
*RES
1 *298:X *59:11 43.8714 
2 *59:11 *284:A 9.3 
*END

*D_NET *60 0.00265711
*CONN
*I *314:A I *D sky130_fd_sc_hd__buf_2
*I *294:X O *D sky130_fd_sc_hd__clkbuf_1
*CAP
1 *314:A 0
2 *294:X 0.00132855
3 *60:8 0.00132855
4 *58:12 *60:8 0
*RES
1 *294:X *60:8 46.3536 
2 *60:8 *314:A 18.3 
*END

*D_NET *61 0.00292574
*CONN
*I *315:A I *D sky130_fd_sc_hd__buf_2
*I *284:Y O *D sky130_fd_sc_hd__inv_2
*CAP
1 *315:A 0.00110889
2 *284:Y 0.000353977
3 *61:10 0.00146287
4 ram_adrb[0] *315:A 0
5 ram_adrb[1] *315:A 0
6 ram_adrb[2] *315:A 0
7 ram_web *315:A 0
8 *53:10 *61:10 0
9 *54:9 *61:10 0
*RES
1 *284:Y *61:10 35.9786 
2 *61:10 *315:A 32.4429 
*END

*D_NET *62 0.000799698
*CONN
*I *316:A I *D sky130_fd_sc_hd__buf_2
*I *285:Y O *D sky130_fd_sc_hd__inv_2
*CAP
1 *316:A 0.000399849
2 *285:Y 0.000399849
3 *316:A *63:11 0
4 *72:DIODE *316:A 0
5 *286:A *316:A 0
6 *297:A *316:A 0
*RES
1 *285:Y *316:A 46.7786 
*END

*D_NET *63 0.00144144
*CONN
*I *287:A I *D sky130_fd_sc_hd__clkbuf_1
*I *299:X O *D sky130_fd_sc_hd__clkbuf_1
*CAP
1 *287:A 0
2 *299:X 0.000720718
3 *63:11 0.000720718
4 *72:DIODE *63:11 0
5 *74:DIODE *63:11 0
6 *75:DIODE *63:11 0
7 *286:A *63:11 0
8 *297:A *63:11 0
9 *306:A *63:11 0
10 *316:A *63:11 0
*RES
1 *299:X *63:11 43.6929 
2 *63:11 *287:A 9.3 
*END

*D_NET *64 0.00200273
*CONN
*I *288:A I *D sky130_fd_sc_hd__clkbuf_1
*I *300:X O *D sky130_fd_sc_hd__clkbuf_1
*CAP
1 *288:A 0
2 *300:X 0.00100136
3 *64:11 0.00100136
4 *64:11 *65:8 0
5 *64:11 *67:12 0
6 *76:DIODE *64:11 0
7 *77:DIODE *64:11 0
8 *78:DIODE *64:11 0
9 *79:DIODE *64:11 0
10 *300:A *64:11 0
11 *303:A *64:11 0
12 *40:8 *64:11 0
13 *43:9 *64:11 0
*RES
1 *300:X *64:11 49.55 
2 *64:11 *288:A 9.3 
*END

*D_NET *65 0.00234841
*CONN
*I *289:A I *D sky130_fd_sc_hd__clkbuf_1
*I *301:X O *D sky130_fd_sc_hd__clkbuf_1
*CAP
1 *289:A 8.4707e-05
2 *301:X 0.0010895
3 *65:8 0.0011742
4 *65:8 *67:12 0
5 *65:8 *69:11 0
6 *70:DIODE *65:8 0
7 *303:A *65:8 0
8 *305:A *65:8 0
9 *45:8 *65:8 0
10 *59:11 *65:8 0
11 *64:11 *65:8 0
*RES
1 *301:X *65:8 42.0857 
2 *65:8 *289:A 20.0679 
*END

*D_NET *66 0.00280851
*CONN
*I *290:A I *D sky130_fd_sc_hd__clkbuf_1
*I *302:X O *D sky130_fd_sc_hd__clkbuf_1
*CAP
1 *290:A 0
2 *302:X 0.00140425
3 *66:8 0.00140425
4 *66:8 *68:10 0
5 *80:DIODE *66:8 0
*RES
1 *302:X *66:8 49.1393 
2 *66:8 *290:A 18.3 
*END

*D_NET *67 0.00258049
*CONN
*I *291:A I *D sky130_fd_sc_hd__clkbuf_1
*I *303:X O *D sky130_fd_sc_hd__clkbuf_1
*CAP
1 *291:A 0.000302036
2 *303:X 0.000988207
3 *67:12 0.00129024
4 *291:A *69:11 0
5 *67:12 *69:11 0
6 *70:DIODE *67:12 0
7 *303:A *67:12 0
8 *305:A *67:12 0
9 *45:8 *67:12 0
10 *64:11 *67:12 0
11 *65:8 *67:12 0
*RES
1 *303:X *67:12 49.3357 
2 *67:12 *291:A 15.6036 
*END

*D_NET *68 0.00205813
*CONN
*I *292:A I *D sky130_fd_sc_hd__clkbuf_1
*I *304:X O *D sky130_fd_sc_hd__clkbuf_1
*CAP
1 *292:A 6.50276e-05
2 *304:X 0.000964038
3 *68:10 0.00102907
4 *58:12 *292:A 0
5 *59:11 *68:10 0
6 *66:8 *68:10 0
*RES
1 *304:X *68:10 48.7107 
2 *68:10 *292:A 10.6571 
*END

*D_NET *69 0.00171117
*CONN
*I *293:A I *D sky130_fd_sc_hd__clkbuf_1
*I *305:X O *D sky130_fd_sc_hd__clkbuf_1
*CAP
1 *293:A 0
2 *305:X 0.000855585
3 *69:11 0.000855585
4 *291:A *69:11 0
5 *49:10 *69:11 0
6 *54:9 *69:11 0
7 *59:11 *69:11 0
8 *65:8 *69:11 0
9 *67:12 *69:11 0
*RES
1 *305:X *69:11 46.5679 
2 *69:11 *293:A 9.3 
*END
