*SPEF "ieee 1481-1999"
*DESIGN "wrapped_tms1x00"
*DATE "11:11:11 Fri 11 11, 1111"
*VENDOR "OpenRCX"
*PROGRAM "Parallel Extraction"
*VERSION "1.0"
*DESIGN_FLOW "NAME_SCOPE LOCAL" "PIN_CAP NONE"
*DIVIDER /
*DELIMITER :
*BUS_DELIMITER []
*T_UNIT 1 NS
*C_UNIT 1 PF
*R_UNIT 1 OHM
*L_UNIT 1 HENRY

*NAME_MAP
*1 io_in[0]
*2 io_in[10]
*3 io_in[11]
*4 io_in[12]
*5 io_in[13]
*6 io_in[14]
*7 io_in[15]
*8 io_in[16]
*9 io_in[17]
*10 io_in[18]
*11 io_in[19]
*12 io_in[1]
*13 io_in[20]
*14 io_in[21]
*15 io_in[22]
*16 io_in[23]
*17 io_in[24]
*18 io_in[25]
*19 io_in[26]
*20 io_in[27]
*21 io_in[28]
*22 io_in[29]
*23 io_in[2]
*24 io_in[30]
*25 io_in[31]
*26 io_in[32]
*27 io_in[33]
*28 io_in[34]
*29 io_in[35]
*30 io_in[36]
*31 io_in[37]
*32 io_in[3]
*33 io_in[4]
*34 io_in[5]
*35 io_in[6]
*36 io_in[7]
*37 io_in[8]
*38 io_in[9]
*39 net119
*40 net77
*41 net78
*42 net79
*43 net80
*44 net81
*45 net82
*46 net83
*47 net84
*48 net85
*49 net86
*50 net120
*51 net87
*52 net88
*53 net89
*54 net90
*55 net91
*56 net92
*57 net93
*58 net94
*59 net95
*60 net96
*61 net121
*62 net97
*63 net98
*64 net99
*65 net100
*66 net101
*67 net102
*68 net103
*69 net124
*70 net122
*71 net123
*72 net72
*73 net73
*74 net74
*75 net75
*76 net76
*77 net104
*78 io_out[10]
*79 io_out[11]
*80 io_out[12]
*81 io_out[13]
*82 io_out[14]
*83 io_out[15]
*84 io_out[16]
*85 io_out[17]
*86 io_out[18]
*87 io_out[19]
*88 net105
*89 io_out[20]
*90 io_out[21]
*91 io_out[22]
*92 io_out[23]
*93 io_out[24]
*94 io_out[25]
*95 io_out[26]
*96 io_out[27]
*97 io_out[28]
*98 io_out[29]
*99 net106
*100 io_out[30]
*101 io_out[31]
*102 io_out[32]
*103 io_out[33]
*104 net114
*105 net115
*106 net116
*107 net117
*108 net107
*109 net108
*110 net109
*111 net110
*112 net111
*113 net112
*114 net113
*115 oram_addr[0]
*116 oram_addr[1]
*117 oram_addr[2]
*118 oram_addr[3]
*119 oram_addr[4]
*120 oram_addr[5]
*121 oram_addr[6]
*122 oram_addr[7]
*123 net118
*124 oram_csb
*125 oram_value[0]
*126 oram_value[10]
*127 oram_value[11]
*128 oram_value[12]
*129 oram_value[13]
*130 oram_value[14]
*131 oram_value[15]
*132 oram_value[16]
*133 oram_value[17]
*134 oram_value[18]
*135 oram_value[19]
*136 oram_value[1]
*137 oram_value[20]
*138 oram_value[21]
*139 oram_value[22]
*140 oram_value[23]
*141 oram_value[24]
*142 oram_value[25]
*143 oram_value[26]
*144 oram_value[27]
*145 oram_value[28]
*146 oram_value[29]
*147 oram_value[2]
*148 oram_value[30]
*149 oram_value[31]
*150 oram_value[3]
*151 oram_value[4]
*152 oram_value[5]
*153 oram_value[6]
*154 oram_value[7]
*155 oram_value[8]
*156 oram_value[9]
*157 ram_adrb[0]
*158 ram_adrb[1]
*159 ram_adrb[2]
*160 ram_adrb[3]
*161 ram_adrb[4]
*162 ram_adrb[5]
*163 ram_adrb[6]
*164 ram_adrb[7]
*165 ram_adrb[8]
*166 ram_csb
*167 ram_web
*168 net125
*169 net126
*170 net127
*171 net128
*174 wb_clk_i
*175 wb_rst_i
*176 wbs_adr_i[0]
*177 wbs_adr_i[10]
*178 wbs_adr_i[11]
*179 wbs_adr_i[12]
*180 wbs_adr_i[13]
*181 wbs_adr_i[14]
*182 wbs_adr_i[15]
*183 wbs_adr_i[16]
*184 wbs_adr_i[17]
*185 wbs_adr_i[18]
*186 wbs_adr_i[19]
*187 wbs_adr_i[1]
*188 wbs_adr_i[20]
*189 wbs_adr_i[21]
*190 wbs_adr_i[22]
*191 wbs_adr_i[23]
*192 wbs_adr_i[24]
*193 wbs_adr_i[25]
*194 wbs_adr_i[26]
*195 wbs_adr_i[27]
*196 wbs_adr_i[28]
*197 wbs_adr_i[29]
*198 wbs_adr_i[2]
*199 wbs_adr_i[30]
*200 wbs_adr_i[31]
*201 wbs_adr_i[3]
*202 wbs_adr_i[4]
*203 wbs_adr_i[5]
*204 wbs_adr_i[6]
*205 wbs_adr_i[7]
*206 wbs_adr_i[8]
*207 wbs_adr_i[9]
*208 wbs_we_i
*209 _0000_
*210 _0001_
*211 _0002_
*212 _0003_
*213 _0004_
*214 _0005_
*215 _0006_
*216 _0007_
*217 _0008_
*218 _0009_
*219 _0010_
*220 _0011_
*221 _0012_
*222 _0013_
*223 _0014_
*224 _0015_
*225 _0016_
*226 _0017_
*227 _0018_
*228 _0019_
*229 _0020_
*230 _0021_
*231 _0022_
*232 _0023_
*233 _0024_
*234 _0025_
*235 _0026_
*236 _0027_
*237 _0028_
*238 _0029_
*239 _0030_
*240 _0031_
*241 _0032_
*242 _0033_
*243 _0034_
*244 _0035_
*245 _0036_
*246 _0037_
*247 _0038_
*248 _0039_
*249 _0040_
*250 _0041_
*251 _0042_
*252 _0043_
*253 _0044_
*254 _0045_
*255 _0046_
*256 _0047_
*257 _0048_
*258 _0049_
*259 _0050_
*260 _0051_
*261 _0052_
*262 _0053_
*263 _0054_
*264 _0055_
*265 _0056_
*266 _0057_
*267 _0058_
*268 _0059_
*269 _0060_
*270 _0061_
*271 _0062_
*272 _0063_
*273 _0064_
*274 _0065_
*275 _0066_
*276 _0067_
*277 _0068_
*278 _0069_
*279 _0070_
*280 _0071_
*281 _0072_
*282 _0073_
*283 _0074_
*284 _0075_
*285 _0076_
*286 _0077_
*287 _0078_
*288 _0079_
*289 _0080_
*290 _0081_
*291 _0082_
*292 _0083_
*293 _0084_
*294 _0085_
*295 _0086_
*296 _0087_
*297 _0088_
*298 _0089_
*299 _0090_
*300 _0091_
*301 _0092_
*302 _0093_
*303 _0094_
*304 _0095_
*305 _0096_
*306 _0097_
*307 _0098_
*308 _0099_
*309 _0100_
*310 _0101_
*311 _0102_
*312 _0103_
*313 _0104_
*314 _0105_
*315 _0106_
*316 _0107_
*317 _0108_
*318 _0109_
*319 _0110_
*320 _0111_
*321 _0112_
*322 _0113_
*323 _0114_
*324 _0115_
*325 _0116_
*326 _0117_
*327 _0118_
*328 _0119_
*329 _0120_
*330 _0121_
*331 _0122_
*332 _0123_
*333 _0124_
*334 _0125_
*335 _0126_
*336 _0127_
*337 _0128_
*338 _0129_
*339 _0130_
*340 _0131_
*341 _0132_
*342 _0133_
*343 _0134_
*344 _0135_
*345 _0136_
*346 _0137_
*347 _0138_
*348 _0139_
*349 _0140_
*350 _0141_
*351 _0142_
*352 _0143_
*353 _0144_
*354 _0145_
*355 _0146_
*356 _0147_
*357 _0148_
*358 _0149_
*359 _0150_
*360 _0151_
*361 _0152_
*362 _0153_
*363 _0154_
*364 _0155_
*365 _0156_
*366 _0157_
*367 _0158_
*368 _0159_
*369 _0160_
*370 _0161_
*371 _0162_
*372 _0163_
*373 _0164_
*374 _0165_
*375 _0166_
*376 _0167_
*377 _0168_
*378 _0169_
*379 _0170_
*380 _0171_
*381 _0172_
*382 _0173_
*383 _0174_
*384 _0175_
*385 _0176_
*386 _0177_
*387 _0178_
*388 _0179_
*389 _0180_
*390 _0181_
*391 _0182_
*392 _0183_
*393 _0184_
*394 _0185_
*395 _0186_
*396 _0187_
*397 _0188_
*398 _0189_
*399 _0190_
*400 _0191_
*401 _0192_
*402 _0193_
*403 _0194_
*404 _0195_
*405 _0196_
*406 _0197_
*407 _0198_
*408 _0199_
*409 _0200_
*410 _0201_
*411 _0202_
*412 _0203_
*413 _0204_
*414 _0205_
*415 _0206_
*416 _0207_
*417 _0208_
*418 _0209_
*419 _0210_
*420 _0211_
*421 _0212_
*422 _0213_
*423 _0214_
*424 _0215_
*425 _0216_
*426 _0217_
*427 _0218_
*428 _0219_
*429 _0220_
*430 _0221_
*431 _0222_
*432 _0223_
*433 _0224_
*434 _0225_
*435 _0226_
*436 _0227_
*437 _0228_
*438 _0229_
*439 _0230_
*440 _0231_
*441 _0232_
*442 _0233_
*443 _0234_
*444 _0235_
*445 _0236_
*446 _0237_
*447 _0238_
*448 _0239_
*449 _0240_
*450 _0241_
*451 _0242_
*452 _0243_
*453 _0244_
*454 _0245_
*455 _0246_
*456 _0247_
*457 _0248_
*458 _0249_
*459 _0250_
*460 _0251_
*461 _0252_
*462 _0253_
*463 _0254_
*464 _0255_
*465 _0256_
*466 _0257_
*467 _0258_
*468 _0259_
*469 _0260_
*470 _0261_
*471 _0262_
*472 _0263_
*473 _0264_
*474 _0265_
*475 _0266_
*476 _0267_
*477 _0268_
*478 _0269_
*479 _0270_
*480 _0271_
*481 _0272_
*482 _0273_
*483 _0274_
*484 _0275_
*485 _0276_
*486 _0277_
*487 _0278_
*488 _0279_
*489 _0280_
*490 _0281_
*491 _0282_
*492 _0283_
*493 _0284_
*494 _0285_
*495 _0286_
*496 _0287_
*497 _0288_
*498 _0289_
*499 _0290_
*500 _0291_
*501 _0292_
*502 _0293_
*503 _0294_
*504 _0295_
*505 _0296_
*506 _0297_
*507 _0298_
*508 _0299_
*509 _0300_
*510 _0301_
*511 _0302_
*512 _0303_
*513 _0304_
*514 _0305_
*515 _0306_
*516 _0307_
*517 _0308_
*518 _0309_
*519 _0310_
*520 _0311_
*521 _0312_
*522 _0313_
*523 _0314_
*524 _0315_
*525 _0316_
*526 _0317_
*527 _0318_
*528 _0319_
*529 _0320_
*530 _0321_
*531 _0322_
*532 _0323_
*533 _0324_
*534 _0325_
*535 _0326_
*536 _0327_
*537 _0328_
*538 _0329_
*539 _0330_
*540 _0331_
*541 _0332_
*542 _0333_
*543 _0334_
*544 _0335_
*545 _0336_
*546 _0337_
*547 _0338_
*548 _0339_
*549 _0340_
*550 _0341_
*551 _0342_
*552 _0343_
*553 _0344_
*554 _0345_
*555 _0346_
*556 _0347_
*557 _0348_
*558 _0349_
*559 _0350_
*560 _0351_
*561 _0352_
*562 _0353_
*563 _0354_
*564 _0355_
*565 _0356_
*566 _0357_
*567 _0358_
*568 _0359_
*569 _0360_
*570 _0361_
*571 _0362_
*572 _0363_
*573 _0364_
*574 _0365_
*575 _0366_
*576 _0367_
*577 _0368_
*578 _0369_
*579 _0370_
*580 _0371_
*581 _0372_
*582 _0373_
*583 _0374_
*584 _0375_
*585 _0376_
*586 _0377_
*587 _0378_
*588 _0379_
*589 _0380_
*590 _0381_
*591 _0382_
*592 _0383_
*593 _0384_
*594 _0385_
*595 _0386_
*596 _0387_
*597 _0388_
*598 _0389_
*599 _0390_
*600 _0391_
*601 _0392_
*602 _0393_
*603 _0394_
*604 _0395_
*605 _0396_
*606 _0397_
*607 _0398_
*608 _0399_
*609 _0400_
*610 _0401_
*611 _0402_
*612 _0403_
*613 _0404_
*614 _0405_
*615 _0406_
*616 _0407_
*617 _0408_
*618 _0409_
*619 _0410_
*620 _0411_
*621 _0412_
*622 _0413_
*623 _0414_
*624 _0415_
*625 _0416_
*626 _0417_
*627 _0418_
*628 _0419_
*629 _0420_
*630 _0421_
*631 _0422_
*632 _0423_
*633 _0424_
*634 _0425_
*635 _0426_
*636 _0427_
*637 _0428_
*638 _0429_
*639 _0430_
*640 _0431_
*641 _0432_
*642 _0433_
*643 _0434_
*644 _0435_
*645 _0436_
*646 _0437_
*647 _0438_
*648 _0439_
*649 _0440_
*650 _0441_
*651 _0442_
*652 _0443_
*653 _0444_
*654 _0445_
*655 _0446_
*656 _0447_
*657 _0448_
*658 _0449_
*659 _0450_
*660 _0451_
*661 _0452_
*662 _0453_
*663 _0454_
*664 _0455_
*665 _0456_
*666 _0457_
*667 _0458_
*668 _0459_
*669 _0460_
*670 _0461_
*671 _0462_
*672 _0463_
*673 _0464_
*674 _0465_
*675 _0466_
*676 _0467_
*677 _0468_
*678 _0469_
*679 _0470_
*680 _0471_
*681 _0472_
*682 _0473_
*683 _0474_
*684 _0475_
*685 _0476_
*686 _0477_
*687 _0478_
*688 _0479_
*689 _0480_
*690 _0481_
*691 _0482_
*692 _0483_
*693 _0484_
*694 _0485_
*695 _0486_
*696 _0487_
*697 _0488_
*698 _0489_
*699 _0490_
*700 _0491_
*701 _0492_
*702 _0493_
*703 _0494_
*704 _0495_
*705 _0496_
*706 _0497_
*707 _0498_
*708 _0499_
*709 _0500_
*710 _0501_
*711 _0502_
*712 _0503_
*713 _0504_
*714 _0505_
*715 _0506_
*716 _0507_
*717 _0508_
*718 _0509_
*719 _0510_
*720 _0511_
*721 _0512_
*722 _0513_
*723 _0514_
*724 _0515_
*725 _0516_
*726 _0517_
*727 _0518_
*728 _0519_
*729 _0520_
*730 _0521_
*731 _0522_
*732 _0523_
*733 _0524_
*734 _0525_
*735 _0526_
*736 _0527_
*737 _0528_
*738 _0529_
*739 _0530_
*740 _0531_
*741 _0532_
*742 _0533_
*743 _0534_
*744 _0535_
*745 _0536_
*746 _0537_
*747 _0538_
*748 _0539_
*749 _0540_
*750 _0541_
*751 _0542_
*752 _0543_
*753 _0544_
*754 _0545_
*755 _0546_
*756 _0547_
*757 _0548_
*758 _0549_
*759 _0550_
*760 _0551_
*761 _0552_
*762 _0553_
*763 _0554_
*764 _0555_
*765 _0556_
*766 _0557_
*767 _0558_
*768 _0559_
*769 _0560_
*770 _0561_
*771 _0562_
*772 _0563_
*773 _0564_
*774 _0565_
*775 _0566_
*776 _0567_
*777 _0568_
*778 _0569_
*779 _0570_
*780 _0571_
*781 _0572_
*782 _0573_
*783 _0574_
*784 _0575_
*785 _0576_
*786 _0577_
*787 _0578_
*788 _0579_
*789 _0580_
*790 _0581_
*791 _0582_
*792 _0583_
*793 _0584_
*794 _0585_
*795 _0586_
*796 _0587_
*797 _0588_
*798 _0589_
*799 _0590_
*800 _0591_
*801 _0592_
*802 _0593_
*803 _0594_
*804 _0595_
*805 _0596_
*806 _0597_
*807 _0598_
*808 _0599_
*809 _0600_
*810 _0601_
*811 _0602_
*812 _0603_
*813 _0604_
*814 _0605_
*815 _0606_
*816 _0607_
*817 _0608_
*818 _0609_
*819 _0610_
*820 _0611_
*821 _0612_
*822 _0613_
*823 _0614_
*824 _0615_
*825 _0616_
*826 _0617_
*827 _0618_
*828 _0619_
*829 _0620_
*830 _0621_
*831 _0622_
*832 _0623_
*833 _0624_
*834 _0625_
*835 _0626_
*836 _0627_
*837 _0628_
*838 _0629_
*839 _0630_
*840 _0631_
*841 _0632_
*842 _0633_
*843 _0634_
*844 _0635_
*845 _0636_
*846 _0637_
*847 _0638_
*848 _0639_
*849 _0640_
*850 _0641_
*851 _0642_
*852 _0643_
*853 _0644_
*854 _0645_
*855 _0646_
*856 _0647_
*857 _0648_
*858 _0649_
*859 _0650_
*860 _0651_
*861 _0652_
*862 _0653_
*863 _0654_
*864 _0655_
*865 _0656_
*866 _0657_
*867 _0658_
*868 _0659_
*869 _0660_
*870 _0661_
*871 _0662_
*872 _0663_
*873 _0664_
*874 _0665_
*875 _0666_
*876 _0667_
*877 _0668_
*878 _0669_
*879 _0670_
*880 _0671_
*881 _0672_
*882 _0673_
*883 _0674_
*884 _0675_
*885 _0676_
*886 _0677_
*887 _0678_
*888 _0679_
*889 _0680_
*890 _0681_
*891 _0682_
*892 _0683_
*893 _0684_
*894 _0685_
*895 _0686_
*896 _0687_
*897 _0688_
*898 _0689_
*899 _0690_
*900 _0691_
*901 _0692_
*902 _0693_
*903 _0694_
*904 _0695_
*905 _0696_
*906 _0697_
*907 _0698_
*908 _0699_
*909 _0700_
*910 _0701_
*911 _0702_
*912 _0703_
*913 _0704_
*914 _0705_
*915 _0706_
*916 _0707_
*917 _0708_
*918 _0709_
*919 _0710_
*920 _0711_
*921 _0712_
*922 _0713_
*923 _0714_
*924 _0715_
*925 _0716_
*926 _0717_
*927 _0718_
*928 _0719_
*929 _0720_
*930 _0721_
*931 _0722_
*932 _0723_
*933 _0724_
*934 _0725_
*935 _0726_
*936 _0727_
*937 _0728_
*938 _0729_
*939 _0730_
*940 _0731_
*941 _0732_
*942 _0733_
*943 _0734_
*944 _0735_
*945 _0736_
*946 _0737_
*947 _0738_
*948 _0739_
*949 _0740_
*950 _0741_
*951 _0742_
*952 _0743_
*953 _0744_
*954 _0745_
*955 _0746_
*956 _0747_
*957 _0748_
*958 _0749_
*959 _0750_
*960 _0751_
*961 _0752_
*962 _0753_
*963 _0754_
*964 _0755_
*965 _0756_
*966 _0757_
*967 _0758_
*968 _0759_
*969 _0760_
*970 _0761_
*971 _0762_
*972 _0763_
*973 _0764_
*974 _0765_
*975 _0766_
*976 _0767_
*977 _0768_
*978 _0769_
*979 _0770_
*980 _0771_
*981 _0772_
*982 _0773_
*983 _0774_
*984 _0775_
*985 _0776_
*986 _0777_
*987 _0778_
*988 _0779_
*989 _0780_
*990 _0781_
*991 _0782_
*992 _0783_
*993 _0784_
*994 _0785_
*995 _0786_
*996 _0787_
*997 _0788_
*998 _0789_
*999 _0790_
*1000 _0791_
*1001 _0792_
*1002 _0793_
*1003 _0794_
*1004 _0795_
*1005 _0796_
*1006 _0797_
*1007 _0798_
*1008 _0799_
*1009 _0800_
*1010 _0801_
*1011 _0802_
*1012 _0803_
*1013 _0804_
*1014 _0805_
*1015 _0806_
*1016 _0807_
*1017 _0808_
*1018 _0809_
*1019 _0810_
*1020 _0811_
*1021 _0812_
*1022 _0813_
*1023 _0814_
*1024 _0815_
*1025 _0816_
*1026 _0817_
*1027 _0818_
*1028 _0819_
*1029 _0820_
*1030 _0821_
*1031 _0822_
*1032 _0823_
*1033 _0824_
*1034 _0825_
*1035 _0826_
*1036 _0827_
*1037 _0828_
*1038 _0829_
*1039 _0830_
*1040 _0831_
*1041 _0832_
*1042 _0833_
*1043 _0834_
*1044 _0835_
*1045 _0836_
*1046 _0837_
*1047 _0838_
*1048 _0839_
*1049 _0840_
*1050 _0841_
*1051 _0842_
*1052 _0843_
*1053 _0844_
*1054 _0845_
*1055 _0846_
*1056 _0847_
*1057 _0848_
*1058 _0849_
*1059 _0850_
*1060 _0851_
*1061 _0852_
*1062 _0853_
*1063 _0854_
*1064 _0855_
*1065 _0856_
*1066 _0857_
*1067 _0858_
*1068 _0859_
*1069 _0860_
*1070 _0861_
*1071 _0862_
*1072 _0863_
*1073 _0864_
*1074 _0865_
*1075 _0866_
*1076 _0867_
*1077 _0868_
*1078 _0869_
*1079 _0870_
*1080 _0871_
*1081 _0872_
*1082 _0873_
*1083 _0874_
*1084 _0875_
*1085 _0876_
*1086 _0877_
*1087 _0878_
*1088 _0879_
*1089 _0880_
*1090 _0881_
*1091 _0882_
*1092 _0883_
*1093 _0884_
*1094 _0885_
*1095 _0886_
*1096 _0887_
*1097 _0888_
*1098 _0889_
*1099 _0890_
*1100 _0891_
*1101 _0892_
*1102 _0893_
*1103 _0894_
*1104 _0895_
*1105 _0896_
*1106 _0897_
*1107 _0898_
*1108 _0899_
*1109 _0900_
*1110 _0901_
*1111 _0902_
*1112 _0903_
*1113 _0904_
*1114 _0905_
*1115 _0906_
*1116 _0907_
*1117 _0908_
*1118 _0909_
*1119 _0910_
*1120 _0911_
*1121 _0912_
*1122 _0913_
*1123 _0914_
*1124 _0915_
*1125 _0916_
*1126 _0917_
*1127 _0918_
*1128 _0919_
*1129 _0920_
*1130 _0921_
*1131 _0922_
*1132 _0923_
*1133 _0924_
*1134 _0925_
*1135 _0926_
*1136 _0927_
*1137 _0928_
*1138 _0929_
*1139 _0930_
*1140 _0931_
*1141 _0932_
*1142 _0933_
*1143 _0934_
*1144 _0935_
*1145 _0936_
*1146 _0937_
*1147 _0938_
*1148 _0939_
*1149 _0940_
*1150 _0941_
*1151 _0942_
*1152 _0943_
*1153 _0944_
*1154 _0945_
*1155 _0946_
*1156 _0947_
*1157 _0948_
*1158 _0949_
*1159 _0950_
*1160 _0951_
*1161 _0952_
*1162 _0953_
*1163 _0954_
*1164 _0955_
*1165 _0956_
*1166 _0957_
*1167 _0958_
*1168 _0959_
*1169 _0960_
*1170 _0961_
*1171 _0962_
*1172 _0963_
*1173 _0964_
*1174 _0965_
*1175 _0966_
*1176 _0967_
*1177 _0968_
*1178 _0969_
*1179 _0970_
*1180 _0971_
*1181 _0972_
*1182 _0973_
*1183 _0974_
*1184 _0975_
*1185 _0976_
*1186 _0977_
*1187 _0978_
*1188 _0979_
*1189 _0980_
*1190 _0981_
*1191 _0982_
*1192 _0983_
*1193 _0984_
*1194 _0985_
*1195 _0986_
*1196 _0987_
*1197 _0988_
*1198 _0989_
*1199 _0990_
*1200 _0991_
*1201 _0992_
*1202 _0993_
*1203 _0994_
*1204 _0995_
*1205 _0996_
*1206 _0997_
*1207 _0998_
*1208 _0999_
*1209 _1000_
*1210 _1001_
*1211 _1002_
*1212 _1003_
*1213 _1004_
*1214 _1005_
*1215 _1006_
*1216 _1007_
*1217 _1008_
*1218 _1009_
*1219 _1010_
*1220 _1011_
*1221 _1012_
*1222 _1013_
*1223 _1014_
*1224 _1015_
*1225 _1016_
*1226 _1017_
*1227 _1018_
*1228 _1019_
*1229 _1020_
*1230 _1021_
*1231 _1022_
*1232 _1023_
*1233 _1024_
*1234 _1025_
*1235 _1026_
*1236 _1027_
*1237 _1028_
*1238 _1029_
*1239 _1030_
*1240 _1031_
*1241 _1032_
*1242 _1033_
*1243 _1034_
*1244 _1035_
*1245 _1036_
*1246 _1037_
*1247 _1038_
*1248 _1039_
*1249 _1040_
*1250 _1041_
*1251 _1042_
*1252 _1043_
*1253 _1044_
*1254 _1045_
*1255 _1046_
*1256 _1047_
*1257 _1048_
*1258 _1049_
*1259 _1050_
*1260 _1051_
*1261 _1052_
*1262 _1053_
*1263 _1054_
*1264 _1055_
*1265 _1056_
*1266 _1057_
*1267 _1058_
*1268 _1059_
*1269 _1060_
*1270 _1061_
*1271 _1062_
*1272 _1063_
*1273 _1064_
*1274 _1065_
*1275 _1066_
*1276 _1067_
*1277 _1068_
*1278 _1069_
*1279 _1070_
*1280 _1071_
*1281 _1072_
*1282 _1073_
*1283 _1074_
*1284 _1075_
*1285 _1076_
*1286 _1077_
*1287 _1078_
*1288 _1079_
*1289 _1080_
*1290 _1081_
*1291 _1082_
*1292 _1083_
*1293 _1084_
*1294 _1085_
*1295 _1086_
*1296 _1087_
*1297 _1088_
*1298 _1089_
*1299 _1090_
*1300 _1091_
*1301 _1092_
*1302 _1093_
*1303 _1094_
*1304 _1095_
*1305 _1096_
*1306 _1097_
*1307 _1098_
*1308 _1099_
*1309 _1100_
*1310 _1101_
*1311 _1102_
*1312 _1103_
*1313 _1104_
*1314 _1105_
*1315 _1106_
*1316 _1107_
*1317 _1108_
*1318 _1109_
*1319 _1110_
*1320 _1111_
*1321 _1112_
*1322 _1113_
*1323 _1114_
*1324 _1115_
*1325 _1116_
*1326 _1117_
*1327 _1118_
*1328 _1119_
*1329 _1120_
*1330 _1121_
*1331 _1122_
*1332 _1123_
*1333 _1124_
*1334 _1125_
*1335 _1126_
*1336 _1127_
*1337 _1128_
*1338 _1129_
*1339 _1130_
*1340 _1131_
*1341 _1132_
*1342 _1133_
*1343 _1134_
*1344 _1135_
*1345 _1136_
*1346 _1137_
*1347 _1138_
*1348 _1139_
*1349 _1140_
*1350 _1141_
*1351 _1142_
*1352 _1143_
*1353 _1144_
*1354 _1145_
*1355 _1146_
*1356 _1147_
*1357 _1148_
*1358 _1149_
*1359 _1150_
*1360 _1151_
*1361 _1152_
*1362 _1153_
*1363 _1154_
*1364 _1155_
*1365 _1156_
*1366 _1157_
*1367 _1158_
*1368 _1159_
*1369 _1160_
*1370 _1161_
*1371 _1162_
*1372 _1163_
*1373 _1164_
*1374 _1165_
*1375 _1166_
*1376 _1167_
*1377 _1168_
*1378 _1169_
*1379 _1170_
*1380 _1171_
*1381 _1172_
*1382 _1173_
*1383 _1174_
*1384 _1175_
*1385 _1176_
*1386 _1177_
*1387 _1178_
*1388 _1179_
*1389 _1180_
*1390 _1181_
*1391 _1182_
*1392 _1183_
*1393 _1184_
*1394 _1185_
*1395 _1186_
*1396 _1187_
*1397 _1188_
*1398 _1189_
*1399 _1190_
*1400 _1191_
*1401 _1192_
*1402 _1193_
*1403 _1194_
*1404 _1195_
*1405 _1196_
*1406 _1197_
*1407 _1198_
*1408 _1199_
*1409 _1200_
*1410 _1201_
*1411 _1202_
*1412 _1203_
*1413 _1204_
*1414 _1205_
*1415 _1206_
*1416 _1207_
*1417 _1208_
*1418 _1209_
*1419 _1210_
*1420 _1211_
*1421 _1212_
*1422 _1213_
*1423 _1214_
*1424 _1215_
*1425 _1216_
*1426 _1217_
*1427 _1218_
*1428 _1219_
*1429 _1220_
*1430 _1221_
*1431 _1222_
*1432 _1223_
*1433 _1224_
*1434 _1225_
*1435 _1226_
*1436 _1227_
*1437 _1228_
*1438 _1229_
*1439 _1230_
*1440 _1231_
*1441 _1232_
*1442 _1233_
*1443 _1234_
*1444 _1235_
*1445 _1236_
*1446 _1237_
*1447 _1238_
*1448 _1239_
*1449 _1240_
*1450 _1241_
*1451 _1242_
*1452 _1243_
*1453 _1244_
*1454 _1245_
*1455 _1246_
*1456 _1247_
*1457 _1248_
*1458 _1249_
*1459 _1250_
*1460 _1251_
*1461 _1252_
*1462 _1253_
*1463 _1254_
*1464 _1255_
*1465 _1256_
*1466 _1257_
*1467 _1258_
*1468 _1259_
*1469 _1260_
*1470 _1261_
*1471 _1262_
*1472 _1263_
*1473 _1264_
*1474 _1265_
*1475 _1266_
*1476 _1267_
*1477 _1268_
*1478 _1269_
*1479 _1270_
*1480 _1271_
*1481 _1272_
*1482 _1273_
*1483 _1274_
*1484 _1275_
*1485 _1276_
*1486 _1277_
*1487 _1278_
*1488 _1279_
*1489 _1280_
*1490 _1281_
*1491 _1282_
*1492 _1283_
*1493 _1284_
*1494 _1285_
*1495 _1286_
*1496 _1287_
*1497 _1288_
*1498 _1289_
*1499 _1290_
*1500 _1291_
*1501 _1292_
*1502 _1293_
*1503 _1294_
*1504 _1295_
*1505 _1296_
*1506 _1297_
*1507 _1298_
*1508 _1299_
*1509 _1300_
*1510 _1301_
*1511 _1302_
*1512 _1303_
*1513 _1304_
*1514 _1305_
*1515 _1306_
*1516 _1307_
*1517 _1308_
*1518 _1309_
*1519 _1310_
*1520 _1311_
*1521 _1312_
*1522 _1313_
*1523 _1314_
*1524 _1315_
*1525 _1316_
*1526 _1317_
*1527 _1318_
*1528 _1319_
*1529 _1320_
*1530 _1321_
*1531 _1322_
*1532 _1323_
*1533 _1324_
*1534 _1325_
*1535 _1326_
*1536 _1327_
*1537 _1328_
*1538 _1329_
*1539 _1330_
*1540 _1331_
*1541 _1332_
*1542 _1333_
*1543 _1334_
*1544 _1335_
*1545 _1336_
*1546 _1337_
*1547 _1338_
*1548 _1339_
*1549 _1340_
*1550 _1341_
*1551 _1342_
*1552 _1343_
*1553 _1344_
*1554 _1345_
*1555 _1346_
*1556 _1347_
*1557 _1348_
*1558 _1349_
*1559 _1350_
*1560 _1351_
*1561 _1352_
*1562 _1353_
*1563 _1354_
*1564 _1355_
*1565 _1356_
*1566 _1357_
*1567 _1358_
*1568 _1359_
*1569 _1360_
*1570 _1361_
*1571 _1362_
*1572 _1363_
*1573 _1364_
*1574 _1365_
*1575 _1366_
*1576 _1367_
*1577 _1368_
*1578 _1369_
*1579 _1370_
*1580 _1371_
*1581 _1372_
*1582 _1373_
*1583 _1374_
*1584 _1375_
*1585 _1376_
*1586 _1377_
*1587 _1378_
*1588 _1379_
*1589 _1380_
*1590 _1381_
*1591 _1382_
*1592 _1383_
*1593 _1384_
*1594 _1385_
*1595 _1386_
*1596 _1387_
*1597 _1388_
*1598 _1389_
*1599 _1390_
*1600 _1391_
*1601 _1392_
*1602 _1393_
*1603 _1394_
*1604 _1395_
*1605 _1396_
*1606 _1397_
*1607 _1398_
*1608 _1399_
*1609 _1400_
*1610 _1401_
*1611 _1402_
*1612 _1403_
*1613 _1404_
*1614 _1405_
*1615 _1406_
*1616 _1407_
*1617 _1408_
*1618 _1409_
*1619 _1410_
*1620 _1411_
*1621 _1412_
*1622 _1413_
*1623 _1414_
*1624 _1415_
*1625 _1416_
*1626 _1417_
*1627 _1418_
*1628 _1419_
*1629 _1420_
*1630 _1421_
*1631 _1422_
*1632 _1423_
*1633 _1424_
*1634 _1425_
*1635 _1426_
*1636 _1427_
*1637 _1428_
*1638 _1429_
*1639 _1430_
*1640 _1431_
*1641 _1432_
*1642 _1433_
*1643 _1434_
*1644 _1435_
*1645 _1436_
*1646 _1437_
*1647 _1438_
*1648 _1439_
*1649 _1440_
*1650 _1441_
*1651 _1442_
*1652 _1443_
*1653 _1444_
*1654 _1445_
*1655 _1446_
*1656 _1447_
*1657 _1448_
*1658 _1449_
*1659 _1450_
*1660 _1451_
*1661 _1452_
*1662 _1453_
*1663 _1454_
*1664 _1455_
*1665 _1456_
*1666 _1457_
*1667 _1458_
*1668 _1459_
*1669 _1460_
*1670 _1461_
*1671 _1462_
*1672 _1463_
*1673 _1464_
*1674 _1465_
*1675 _1466_
*1676 _1467_
*1677 _1468_
*1678 _1469_
*1679 _1470_
*1680 _1471_
*1681 _1472_
*1682 _1473_
*1683 _1474_
*1684 _1475_
*1685 _1476_
*1686 _1477_
*1687 _1478_
*1688 _1479_
*1689 _1480_
*1690 _1481_
*1691 _1482_
*1692 _1483_
*1693 _1484_
*1694 _1485_
*1695 _1486_
*1696 _1487_
*1697 _1488_
*1698 _1489_
*1699 _1490_
*1700 _1491_
*1701 _1492_
*1702 _1493_
*1703 _1494_
*1704 _1495_
*1705 _1496_
*1706 _1497_
*1707 _1498_
*1708 _1499_
*1709 _1500_
*1710 _1501_
*1711 _1502_
*1712 _1503_
*1713 _1504_
*1714 _1505_
*1715 _1506_
*1716 _1507_
*1717 _1508_
*1718 _1509_
*1719 _1510_
*1720 _1511_
*1721 _1512_
*1722 _1513_
*1723 _1514_
*1724 _1515_
*1725 _1516_
*1726 _1517_
*1727 _1518_
*1728 _1519_
*1729 _1520_
*1730 _1521_
*1731 _1522_
*1732 _1523_
*1733 _1524_
*1734 _1525_
*1735 _1526_
*1736 _1527_
*1737 _1528_
*1738 _1529_
*1739 _1530_
*1740 _1531_
*1741 _1532_
*1742 _1533_
*1743 _1534_
*1744 _1535_
*1745 _1536_
*1746 _1537_
*1747 _1538_
*1748 _1539_
*1749 _1540_
*1750 _1541_
*1751 _1542_
*1752 _1543_
*1753 _1544_
*1754 _1545_
*1755 _1546_
*1756 _1547_
*1757 _1548_
*1758 _1549_
*1759 _1550_
*1760 _1551_
*1761 _1552_
*1762 _1553_
*1763 _1554_
*1764 _1555_
*1765 _1556_
*1766 _1557_
*1767 _1558_
*1768 _1559_
*1769 _1560_
*1770 _1561_
*1771 _1562_
*1772 _1563_
*1773 _1564_
*1774 _1565_
*1775 _1566_
*1776 _1567_
*1777 _1568_
*1778 _1569_
*1779 _1570_
*1780 _1571_
*1781 _1572_
*1782 _1573_
*1783 _1574_
*1784 _1575_
*1785 _1576_
*1786 _1577_
*1787 _1578_
*1788 _1579_
*1789 _1580_
*1790 _1581_
*1791 _1582_
*1792 _1583_
*1793 _1584_
*1794 _1585_
*1795 _1586_
*1796 _1587_
*1797 _1588_
*1798 _1589_
*1799 _1590_
*1800 _1591_
*1801 _1592_
*1802 _1593_
*1803 _1594_
*1804 _1595_
*1805 _1596_
*1806 _1597_
*1807 _1598_
*1808 _1599_
*1809 _1600_
*1810 _1601_
*1811 _1602_
*1812 _1603_
*1813 _1604_
*1814 _1605_
*1815 _1606_
*1816 _1607_
*1817 _1608_
*1818 _1609_
*1819 _1610_
*1820 _1611_
*1821 _1612_
*1822 _1613_
*1823 _1614_
*1824 _1615_
*1825 _1616_
*1826 _1617_
*1827 _1618_
*1828 _1619_
*1829 _1620_
*1830 _1621_
*1831 _1622_
*1832 _1623_
*1833 _1624_
*1834 _1625_
*1835 _1626_
*1836 _1627_
*1837 _1628_
*1838 _1629_
*1839 _1630_
*1840 _1631_
*1841 _1632_
*1842 _1633_
*1843 _1634_
*1844 _1635_
*1845 _1636_
*1846 _1637_
*1847 _1638_
*1848 _1639_
*1849 _1640_
*1850 _1641_
*1851 _1642_
*1852 _1643_
*1853 _1644_
*1854 _1645_
*1855 _1646_
*1856 _1647_
*1857 _1648_
*1858 _1649_
*1859 _1650_
*1860 _1651_
*1861 _1652_
*1862 _1653_
*1863 _1654_
*1864 _1655_
*1865 _1656_
*1866 _1657_
*1867 _1658_
*1868 _1659_
*1869 _1660_
*1870 _1661_
*1871 _1662_
*1872 _1663_
*1873 _1664_
*1874 _1665_
*1875 _1666_
*1876 _1667_
*1877 _1668_
*1878 _1669_
*1879 _1670_
*1880 _1671_
*1881 _1672_
*1882 _1673_
*1883 _1674_
*1884 _1675_
*1885 _1676_
*1886 _1677_
*1887 _1678_
*1888 _1679_
*1889 _1680_
*1890 _1681_
*1891 _1682_
*1892 _1683_
*1893 _1684_
*1894 _1685_
*1895 _1686_
*1896 _1687_
*1897 _1688_
*1898 _1689_
*1899 _1690_
*1900 _1691_
*1901 _1692_
*1902 _1693_
*1903 _1694_
*1904 _1695_
*1905 _1696_
*1906 _1697_
*1907 _1698_
*1908 _1699_
*1909 _1700_
*1910 _1701_
*1911 _1702_
*1912 _1703_
*1913 _1704_
*1914 _1705_
*1915 _1706_
*1916 _1707_
*1917 _1708_
*1918 _1709_
*1919 _1710_
*1920 _1711_
*1921 _1712_
*1922 _1713_
*1923 _1714_
*1924 _1715_
*1925 _1716_
*1926 _1717_
*1927 _1718_
*1928 _1719_
*1929 _1720_
*1930 _1721_
*1931 _1722_
*1932 _1723_
*1933 _1724_
*1934 _1725_
*1935 _1726_
*1936 _1727_
*1937 _1728_
*1938 _1729_
*1939 _1730_
*1940 _1731_
*1941 _1732_
*1942 _1733_
*1943 _1734_
*1944 _1735_
*1945 _1736_
*1946 _1737_
*1947 _1738_
*1948 _1739_
*1949 _1740_
*1950 _1741_
*1951 _1742_
*1952 _1743_
*1953 _1744_
*1954 _1745_
*1955 _1746_
*1956 _1747_
*1957 _1748_
*1958 _1749_
*1959 _1750_
*1960 _1751_
*1961 _1752_
*1962 _1753_
*1963 _1754_
*1964 _1755_
*1965 _1756_
*1966 _1757_
*1967 _1758_
*1968 _1759_
*1969 _1760_
*1970 _1761_
*1971 _1762_
*1972 _1763_
*1973 _1764_
*1974 _1765_
*1975 _1766_
*1976 _1767_
*1977 _1768_
*1978 _1769_
*1979 _1770_
*1980 _1771_
*1981 _1772_
*1982 _1773_
*1983 _1774_
*1984 _1775_
*1985 _1776_
*1986 _1777_
*1987 _1778_
*1988 _1779_
*1989 _1780_
*1990 _1781_
*1991 _1782_
*1992 _1783_
*1993 _1784_
*1994 _1785_
*1995 _1786_
*1996 _1787_
*1997 _1788_
*1998 _1789_
*1999 _1790_
*2000 _1791_
*2001 _1792_
*2002 _1793_
*2003 _1794_
*2004 _1795_
*2005 _1796_
*2006 _1797_
*2007 _1798_
*2008 _1799_
*2009 _1800_
*2010 _1801_
*2011 _1802_
*2012 _1803_
*2013 _1804_
*2014 _1805_
*2015 _1806_
*2016 _1807_
*2017 _1808_
*2018 _1809_
*2019 _1810_
*2020 _1811_
*2021 _1812_
*2022 _1813_
*2023 _1814_
*2024 _1815_
*2025 _1816_
*2026 _1817_
*2027 _1818_
*2028 _1819_
*2029 _1820_
*2030 _1821_
*2031 _1822_
*2032 _1823_
*2033 _1824_
*2034 _1825_
*2035 _1826_
*2036 _1827_
*2037 _1828_
*2038 _1829_
*2039 _1830_
*2040 _1831_
*2041 _1832_
*2042 _1833_
*2043 _1834_
*2044 _1835_
*2045 _1836_
*2046 _1837_
*2047 _1838_
*2048 _1839_
*2049 _1840_
*2050 _1841_
*2051 _1842_
*2052 _1843_
*2053 _1844_
*2054 _1845_
*2055 _1846_
*2056 _1847_
*2057 _1848_
*2058 _1849_
*2059 _1850_
*2060 _1851_
*2061 _1852_
*2062 _1853_
*2063 _1854_
*2064 _1855_
*2065 _1856_
*2066 _1857_
*2067 _1858_
*2068 _1859_
*2069 _1860_
*2070 _1861_
*2071 _1862_
*2072 _1863_
*2073 _1864_
*2074 _1865_
*2075 _1866_
*2076 _1867_
*2077 _1868_
*2078 _1869_
*2079 _1870_
*2080 _1871_
*2081 _1872_
*2082 _1873_
*2083 _1874_
*2084 _1875_
*2085 _1876_
*2086 _1877_
*2087 _1878_
*2088 _1879_
*2089 _1880_
*2090 _1881_
*2091 _1882_
*2092 _1883_
*2093 _1884_
*2094 _1885_
*2095 _1886_
*2096 _1887_
*2097 _1888_
*2098 _1889_
*2099 _1890_
*2100 _1891_
*2101 _1892_
*2102 _1893_
*2103 _1894_
*2104 _1895_
*2105 _1896_
*2106 _1897_
*2107 _1898_
*2108 _1899_
*2109 _1900_
*2110 _1901_
*2111 _1902_
*2112 _1903_
*2113 _1904_
*2114 _1905_
*2115 _1906_
*2116 _1907_
*2117 _1908_
*2118 _1909_
*2119 _1910_
*2120 _1911_
*2121 _1912_
*2122 _1913_
*2123 _1914_
*2124 _1915_
*2125 _1916_
*2126 _1917_
*2127 _1918_
*2128 _1919_
*2129 _1920_
*2130 _1921_
*2131 _1922_
*2132 _1923_
*2133 _1924_
*2134 _1925_
*2135 _1926_
*2136 _1927_
*2137 _1928_
*2138 _1929_
*2139 _1930_
*2140 _1931_
*2141 _1932_
*2142 _1933_
*2143 _1934_
*2144 _1935_
*2145 _1936_
*2146 _1937_
*2147 _1938_
*2148 _1939_
*2149 _1940_
*2150 _1941_
*2151 _1942_
*2152 _1943_
*2153 _1944_
*2154 _1945_
*2155 _1946_
*2156 _1947_
*2157 _1948_
*2158 _1949_
*2159 _1950_
*2160 _1951_
*2161 _1952_
*2162 _1953_
*2163 _1954_
*2164 _1955_
*2165 _1956_
*2166 _1957_
*2167 _1958_
*2168 _1959_
*2169 _1960_
*2170 _1961_
*2171 _1962_
*2172 _1963_
*2173 _1964_
*2174 _1965_
*2175 _1966_
*2176 _1967_
*2177 _1968_
*2178 _1969_
*2179 _1970_
*2180 _1971_
*2181 _1972_
*2182 _1973_
*2183 _1974_
*2184 _1975_
*2185 _1976_
*2186 _1977_
*2187 _1978_
*2188 _1979_
*2189 _1980_
*2190 _1981_
*2191 _1982_
*2192 _1983_
*2193 _1984_
*2194 _1985_
*2195 _1986_
*2196 _1987_
*2197 _1988_
*2198 _1989_
*2199 _1990_
*2200 _1991_
*2201 _1992_
*2202 _1993_
*2203 _1994_
*2204 _1995_
*2205 _1996_
*2206 _1997_
*2207 _1998_
*2208 _1999_
*2209 _2000_
*2210 _2001_
*2211 _2002_
*2212 _2003_
*2213 _2004_
*2214 _2005_
*2215 _2006_
*2216 _2007_
*2217 _2008_
*2218 _2009_
*2219 _2010_
*2220 _2011_
*2221 _2012_
*2222 _2013_
*2223 _2014_
*2224 _2015_
*2225 _2016_
*2226 _2017_
*2227 _2018_
*2228 _2019_
*2229 _2020_
*2230 _2021_
*2231 _2022_
*2232 _2023_
*2233 _2024_
*2234 _2025_
*2235 _2026_
*2236 _2027_
*2237 _2028_
*2238 _2029_
*2239 _2030_
*2240 _2031_
*2241 _2032_
*2242 _2033_
*2243 _2034_
*2244 _2035_
*2245 _2036_
*2246 _2037_
*2247 _2038_
*2248 _2039_
*2249 _2040_
*2250 _2041_
*2251 _2042_
*2252 _2043_
*2253 _2044_
*2254 _2045_
*2255 _2046_
*2256 _2047_
*2257 _2048_
*2258 _2049_
*2259 _2050_
*2260 _2051_
*2261 _2052_
*2262 _2053_
*2263 _2054_
*2264 _2055_
*2265 _2056_
*2266 _2057_
*2267 _2058_
*2268 _2059_
*2269 _2060_
*2270 _2061_
*2271 _2062_
*2272 _2063_
*2273 _2064_
*2274 _2065_
*2275 _2066_
*2276 _2067_
*2277 _2068_
*2278 _2069_
*2279 _2070_
*2280 _2071_
*2281 _2072_
*2282 _2073_
*2283 clknet_0_wb_clk_i
*2284 clknet_2_0__leaf_wb_clk_i
*2285 clknet_2_1__leaf_wb_clk_i
*2286 clknet_2_2__leaf_wb_clk_i
*2287 clknet_2_3__leaf_wb_clk_i
*2288 clknet_leaf_0_wb_clk_i
*2289 clknet_leaf_10_wb_clk_i
*2290 clknet_leaf_11_wb_clk_i
*2291 clknet_leaf_12_wb_clk_i
*2292 clknet_leaf_13_wb_clk_i
*2293 clknet_leaf_14_wb_clk_i
*2294 clknet_leaf_15_wb_clk_i
*2295 clknet_leaf_16_wb_clk_i
*2296 clknet_leaf_17_wb_clk_i