*SPEF "ieee 1481-1999"
*DESIGN "wrapped_tms1x00"
*DATE "11:11:11 Fri 11 11, 1111"
*VENDOR "OpenRCX"
*PROGRAM "Parallel Extraction"
*VERSION "1.0"
*DESIGN_FLOW "NAME_SCOPE LOCAL" "PIN_CAP NONE"
*DIVIDER /
*DELIMITER :
*BUS_DELIMITER []
*T_UNIT 1 NS
*C_UNIT 1 PF
*R_UNIT 1 OHM
*L_UNIT 1 HENRY

*NAME_MAP
*1 io_in[0]
*2 io_in[10]
*3 io_in[11]
*4 io_in[12]
*5 io_in[13]
*6 io_in[14]
*7 io_in[15]
*8 io_in[16]
*9 io_in[17]
*10 io_in[18]
*11 io_in[19]
*12 io_in[1]
*13 io_in[20]
*14 io_in[21]
*15 io_in[22]
*16 io_in[23]
*17 io_in[24]
*18 io_in[25]
*19 io_in[26]
*20 io_in[27]
*21 io_in[28]
*22 io_in[29]
*23 io_in[2]
*24 io_in[30]
*25 io_in[31]
*26 io_in[32]
*27 io_in[33]
*28 io_in[34]
*29 io_in[35]
*30 io_in[36]
*31 io_in[37]
*32 io_in[3]
*33 io_in[4]
*34 io_in[5]
*35 io_in[6]
*36 io_in[7]
*37 io_in[8]
*38 io_in[9]
*39 net92
*40 net31
*41 net32
*42 net33
*43 net34
*44 net35
*45 net36
*46 net37
*47 net38
*48 net39
*49 net40
*50 net93
*51 net41
*52 net42
*53 net43
*54 net44
*55 net45
*56 net46
*57 net47
*58 net48
*59 net49
*60 net50
*61 net94
*62 net51
*63 net52
*64 net53
*65 net54
*66 net55
*67 net56
*68 net57
*69 net97
*70 net95
*71 net96
*72 net26
*73 net27
*74 net28
*75 net29
*76 net30
*77 net58
*78 net68
*79 net69
*80 net70
*81 net71
*82 io_out[14]
*83 io_out[15]
*84 io_out[16]
*85 io_out[17]
*86 io_out[18]
*87 net72
*88 net59
*89 net73
*90 net74
*91 net75
*92 net76
*93 net77
*94 net78
*95 net79
*96 net80
*97 net81
*98 net82
*99 net60
*100 net83
*101 net84
*102 net85
*103 net86
*104 net87
*105 net88
*106 net89
*107 net90
*108 net61
*109 net62
*110 net63
*111 net64
*112 net65
*113 net66
*114 net67
*115 oram_addr[0]
*116 oram_addr[1]
*117 oram_addr[2]
*118 oram_addr[3]
*119 oram_addr[4]
*120 oram_addr[5]
*121 oram_addr[6]
*122 oram_addr[7]
*123 net91
*124 oram_value[0]
*125 oram_value[10]
*126 oram_value[11]
*127 oram_value[12]
*128 oram_value[13]
*129 oram_value[14]
*130 oram_value[15]
*131 oram_value[16]
*132 oram_value[17]
*133 oram_value[18]
*134 oram_value[19]
*135 oram_value[1]
*136 oram_value[20]
*137 oram_value[21]
*138 oram_value[22]
*139 oram_value[23]
*140 oram_value[24]
*141 oram_value[25]
*142 oram_value[26]
*143 oram_value[27]
*144 oram_value[28]
*145 oram_value[29]
*146 oram_value[2]
*147 oram_value[30]
*148 oram_value[31]
*149 oram_value[3]
*150 oram_value[4]
*151 oram_value[5]
*152 oram_value[6]
*153 oram_value[7]
*154 oram_value[8]
*155 oram_value[9]
*158 wb_clk_i
*159 wb_rst_i
*160 _000_
*161 _001_
*162 _002_
*163 _003_
*164 _004_
*165 _005_
*166 _006_
*167 _007_
*168 _008_
*169 _009_
*170 _010_
*171 _011_
*172 _012_
*173 _013_
*174 _014_
*175 _015_
*176 _016_
*177 _017_
*178 _018_
*179 _019_
*180 _020_
*181 _021_
*182 _022_
*183 _023_
*184 _024_
*185 _025_
*186 _026_
*187 _027_
*188 _028_
*189 _029_
*190 _030_
*191 _031_
*192 _032_
*193 _033_
*194 _034_
*195 _035_
*196 _036_
*197 _037_
*198 _038_
*199 _039_
*200 _040_
*201 _041_
*202 _042_
*203 _043_
*204 _044_
*205 _045_
*206 _046_
*207 _047_
*208 _048_
*209 _049_
*210 _050_
*211 _051_
*212 _052_
*213 _053_
*214 _054_
*215 _055_
*216 _056_
*217 _057_
*218 _058_
*219 _059_
*220 _060_
*221 _061_
*222 _062_
*223 _063_
*224 _064_
*225 _065_
*226 _066_
*227 _067_
*228 _068_
*229 _069_
*230 _070_
*231 _071_
*232 _072_
*233 _073_
*234 _074_
*235 _075_
*236 _076_
*237 _077_
*238 _078_
*239 _079_
*240 _080_
*241 _081_
*242 _082_
*243 _083_
*244 _084_
*245 _085_
*246 _086_
*247 _087_
*248 _088_
*249 _089_
*250 _090_
*251 _091_
*252 _092_
*253 _093_
*254 _094_
*255 _095_
*256 _096_
*257 _097_
*258 _098_
*259 _099_
*260 _100_
*261 _101_
*262 _102_
*263 _103_
*264 _104_
*265 _105_
*266 _106_
*267 _107_
*268 _108_
*269 _109_
*270 _110_
*271 _111_
*272 _112_
*273 _113_
*274 _114_
*275 _115_
*276 _116_
*277 _117_
*278 _118_
*279 _119_
*280 _120_
*281 _121_
*282 _122_
*283 _123_
*284 _124_
*285 _125_
*286 _126_
*287 _127_
*288 _128_
*289 _129_
*290 _130_
*291 _131_
*292 _132_
*293 _133_
*294 _134_
*295 _135_
*296 _136_
*297 _137_
*298 _138_
*299 _139_
*300 _140_
*301 _141_
*302 _142_
*303 _143_
*304 _144_
*305 _145_
*306 _146_
*307 _147_
*308 _148_
*309 _149_
*310 _150_
*311 _151_
*312 _152_
*313 _153_
*314 _154_
*315 _155_
*316 clknet_0_wb_clk_i
*317 clknet_2_0__leaf_wb_clk_i
*318 clknet_2_1__leaf_wb_clk_i
*319 clknet_2_2__leaf_wb_clk_i
*320 clknet_2_3__leaf_wb_clk_i
*321 net1
*322 net10
*323 net11
*324 net12
*325 net13
*326 net14
*327 net15
*328 net16
*329 net17
*330 net18
*331 net19
*332 net2
*333 net20
*334 net21
*335 net22
*336 net23
*337 net24
*338 net25
*339 net3
*340 net4
*341 net5
*342 net6
*343 net7
*344 net8
*345 net9
*346 tms1x00\.CL
*347 tms1x00\.PA\[0\]
*348 tms1x00\.PA\[1\]
*349 tms1x00\.PA\[2\]
*350 tms1x00\.PA\[3\]
*351 tms1x00\.PB\[0\]
*352 tms1x00\.PB\[1\]
*353 tms1x00\.PB\[2\]
*354 tms1x00\.PB\[3\]
*355 tms1x00\.PC\[0\]
*356 tms1x00\.PC\[1\]
*357 tms1x00\.PC\[2\]
*358 tms1x00\.PC\[3\]
*359 tms1x00\.PC\[4\]
*360 tms1x00\.PC\[5\]
*361 tms1x00\.SR\[0\]
*362 tms1x00\.SR\[1\]
*363 tms1x00\.SR\[2\]
*364 tms1x00\.SR\[3\]
*365 tms1x00\.SR\[4\]
*366 tms1x00\.SR\[5\]
*367 tms1x00\.ins_in\[0\]
*368 tms1x00\.ins_in\[1\]
*369 tms1x00\.ins_in\[2\]
*370 tms1x00\.ins_in\[3\]
*371 tms1x00\.ins_in\[4\]
*372 tms1x00\.ins_in\[5\]
*373 tms1x00\.ins_in\[6\]
*374 tms1x00\.ins_in\[7\]
*375 tms1x00\.rom_addr\[0\]
*376 tms1x00\.rom_addr\[1\]
*377 ANTENNA__156__A
*378 ANTENNA__158__A
*379 ANTENNA__158__B
*380 ANTENNA__159__A
*381 ANTENNA__159__B
*382 ANTENNA__160__A_N
*383 ANTENNA__160__B
*384 ANTENNA__160__C
*385 ANTENNA__161__A
*386 ANTENNA__162__A
*387 ANTENNA__162__B
*388 ANTENNA__165__A1
*389 ANTENNA__165__S
*390 ANTENNA__166__A
*391 ANTENNA__167__A
*392 ANTENNA__168__A
*393 ANTENNA__170__A
*394 ANTENNA__172__A
*395 ANTENNA__173__S0
*396 ANTENNA__173__S1
*397 ANTENNA__174__A1
*398 ANTENNA__174__A2
*399 ANTENNA__174__B2
*400 ANTENNA__175__S0
*401 ANTENNA__175__S1
*402 ANTENNA__176__A1
*403 ANTENNA__176__A2
*404 ANTENNA__176__B2
*405 ANTENNA__178__S
*406 ANTENNA__179__A
*407 ANTENNA__179__B
*408 ANTENNA__180__A1
*409 ANTENNA__180__S
*410 ANTENNA__181__A
*411 ANTENNA__181__B_N
*412 ANTENNA__184__A2
*413 ANTENNA__184__A3
*414 ANTENNA__184__S0
*415 ANTENNA__184__S1
*416 ANTENNA__186__A2
*417 ANTENNA__187__A
*418 ANTENNA__187__B
*419 ANTENNA__188__A0
*420 ANTENNA__188__A1
*421 ANTENNA__188__S
*422 ANTENNA__189__A
*423 ANTENNA__189__B_N
*424 ANTENNA__191__A0
*425 ANTENNA__191__A1
*426 ANTENNA__191__A2
*427 ANTENNA__191__A3
*428 ANTENNA__191__S0
*429 ANTENNA__191__S1
*430 ANTENNA__192__A0
*431 ANTENNA__192__A1
*432 ANTENNA__193__A
*433 ANTENNA__195__A0
*434 ANTENNA__195__A1
*435 ANTENNA__195__A2
*436 ANTENNA__195__A3
*437 ANTENNA__195__S0
*438 ANTENNA__195__S1
*439 ANTENNA__196__A1
*440 ANTENNA__196__B2
*441 ANTENNA__197__A0
*442 ANTENNA__197__A1
*443 ANTENNA__197__A2
*444 ANTENNA__197__A3
*445 ANTENNA__197__S0
*446 ANTENNA__197__S1
*447 ANTENNA__198__A1
*448 ANTENNA__198__B2
*449 ANTENNA__199__A
*450 ANTENNA__200__A
*451 ANTENNA__201__C
*452 ANTENNA__201__D
*453 ANTENNA__202__A
*454 ANTENNA__203__A
*455 ANTENNA__204__A0
*456 ANTENNA__205__A
*457 ANTENNA__206__A_N
*458 ANTENNA__206__B
*459 ANTENNA__206__C
*460 ANTENNA__206__D
*461 ANTENNA__208__A
*462 ANTENNA__209__C
*463 ANTENNA__209__D
*464 ANTENNA__210__A
*465 ANTENNA__210__B
*466 ANTENNA__210__C
*467 ANTENNA__213__A
*468 ANTENNA__216__B
*469 ANTENNA__216__C
*470 ANTENNA__219__A
*471 ANTENNA__222__A0
*472 ANTENNA__223__A
*473 ANTENNA__226__A0
*474 ANTENNA__227__A
*475 ANTENNA__229__A1
*476 ANTENNA__230__A0
*477 ANTENNA__233__A
*478 ANTENNA__234__B_N
*479 ANTENNA__235__C
*480 ANTENNA__236__A0
*481 ANTENNA__244__A0
*482 ANTENNA__246__A0
*483 ANTENNA__248__A
*484 ANTENNA__254__A
*485 ANTENNA__258__A
*486 ANTENNA__261__A
*487 ANTENNA__262__A1
*488 ANTENNA__264__A
*489 ANTENNA__265__A1
*490 ANTENNA__266__A1
*491 ANTENNA__267__A
*492 ANTENNA__268__A1
*493 ANTENNA__269__A1
*494 ANTENNA__270__A
*495 ANTENNA__271__A
*496 ANTENNA__271__B
*497 ANTENNA__271__C
*498 ANTENNA__273__A0
*499 ANTENNA__273__A1
*500 ANTENNA__275__A1
*501 ANTENNA__277__A1
*502 ANTENNA__279__A1
*503 ANTENNA__281__A0
*504 ANTENNA__281__A1
*505 ANTENNA__283__A0
*506 ANTENNA__283__A1
*507 ANTENNA__285__A1
*508 ANTENNA__287__A1
*509 ANTENNA__289__A1
*510 ANTENNA__291__A0
*511 ANTENNA__291__A1
*512 ANTENNA__293__A
*513 ANTENNA__294__A
*514 ANTENNA__295__A0
*515 ANTENNA__295__A1
*516 ANTENNA__296__A_N
*517 ANTENNA__300__A0
*518 ANTENNA_clkbuf_0_wb_clk_i_A
*519 ANTENNA_input10_A
*520 ANTENNA_input11_A
*521 ANTENNA_input12_A
*522 ANTENNA_input1_A
*523 ANTENNA_input2_A
*524 ANTENNA_input3_A
*525 ANTENNA_input4_A
*526 ANTENNA_input5_A
*527 ANTENNA_input6_A
*528 ANTENNA_input7_A
*529 ANTENNA_input8_A
*530 ANTENNA_input9_A
*531 ANTENNA_output13_A
*532 ANTENNA_output14_A
*533 ANTENNA_output15_A
*534 ANTENNA_output16_A
*535 ANTENNA_output17_A
*536 ANTENNA_output18_A
*537 ANTENNA_output19_A
*538 ANTENNA_output20_A
*539 ANTENNA_output21_A
*540 ANTENNA_output22_A
*541 ANTENNA_output23_A
*542 ANTENNA_output24_A
*543 ANTENNA_output25_A
*544 FILLER_0_1005
*545 FILLER_0_1009
*546 FILLER_0_1021
*547 FILLER_0_1033
*548 FILLER_0_1037
*549 FILLER_0_1049
*550 FILLER_0_1061
*551 FILLER_0_1065
*552 FILLER_0_1077
*553 FILLER_0_1089
*554 FILLER_0_109
*555 FILLER_0_1093
*556 FILLER_0_1105
*557 FILLER_0_1117
*558 FILLER_0_1121
*559 FILLER_0_113
*560 FILLER_0_1133
*561 FILLER_0_1145
*562 FILLER_0_1149
*563 FILLER_0_1161
*564 FILLER_0_1173
*565 FILLER_0_1177
*566 FILLER_0_1189
*567 FILLER_0_1201
*568 FILLER_0_1205
*569 FILLER_0_1217
*570 FILLER_0_1229
*571 FILLER_0_1233
*572 FILLER_0_1245
*573 FILLER_0_125
*574 FILLER_0_1257
*575 FILLER_0_1261
*576 FILLER_0_1273
*577 FILLER_0_1281
*578 FILLER_0_1286
*579 FILLER_0_1289
*580 FILLER_0_1298
*581 FILLER_0_1310
*582 FILLER_0_1317
*583 FILLER_0_1329
*584 FILLER_0_1341
*585 FILLER_0_1345
*586 FILLER_0_1357
*587 FILLER_0_1369
*588 FILLER_0_137
*589 FILLER_0_1373
*590 FILLER_0_1385
*591 FILLER_0_1397
*592 FILLER_0_1401
*593 FILLER_0_141
*594 FILLER_0_1413
*595 FILLER_0_1425
*596 FILLER_0_1429
*597 FILLER_0_1441
*598 FILLER_0_1453
*599 FILLER_0_1457
*600 FILLER_0_1469
*601 FILLER_0_1481
*602 FILLER_0_1485
*603 FILLER_0_1497
*604 FILLER_0_15
*605 FILLER_0_1509
*606 FILLER_0_1513
*607 FILLER_0_1525
*608 FILLER_0_153
*609 FILLER_0_1537
*610 FILLER_0_1541
*611 FILLER_0_1553
*612 FILLER_0_1565
*613 FILLER_0_1569
*614 FILLER_0_1581
*615 FILLER_0_1593
*616 FILLER_0_1597
*617 FILLER_0_1609
*618 FILLER_0_1621
*619 FILLER_0_1625
*620 FILLER_0_1637
*621 FILLER_0_1649
*622 FILLER_0_165
*623 FILLER_0_1653
*624 FILLER_0_1665
*625 FILLER_0_1677
*626 FILLER_0_1681
*627 FILLER_0_169
*628 FILLER_0_1693
*629 FILLER_0_1705
*630 FILLER_0_1709
*631 FILLER_0_181
*632 FILLER_0_193
*633 FILLER_0_197
*634 FILLER_0_209
*635 FILLER_0_221
*636 FILLER_0_225
*637 FILLER_0_237
*638 FILLER_0_249
*639 FILLER_0_253
*640 FILLER_0_265
*641 FILLER_0_27
*642 FILLER_0_274
*643 FILLER_0_281
*644 FILLER_0_289
*645 FILLER_0_29
*646 FILLER_0_3
*647 FILLER_0_306
*648 FILLER_0_309
*649 FILLER_0_328
*650 FILLER_0_334
*651 FILLER_0_337
*652 FILLER_0_355
*653 FILLER_0_362
*654 FILLER_0_365
*655 FILLER_0_370
*656 FILLER_0_390
*657 FILLER_0_393
*658 FILLER_0_41
*659 FILLER_0_413
*660 FILLER_0_419
*661 FILLER_0_421
*662 FILLER_0_426
*663 FILLER_0_446
*664 FILLER_0_449
*665 FILLER_0_467
*666 FILLER_0_474
*667 FILLER_0_477
*668 FILLER_0_489
*669 FILLER_0_501
*670 FILLER_0_505
*671 FILLER_0_517
*672 FILLER_0_529
*673 FILLER_0_53
*674 FILLER_0_533
*675 FILLER_0_545
*676 FILLER_0_557
*677 FILLER_0_561
*678 FILLER_0_57
*679 FILLER_0_573
*680 FILLER_0_585
*681 FILLER_0_589
*682 FILLER_0_601
*683 FILLER_0_613
*684 FILLER_0_617
*685 FILLER_0_629
*686 FILLER_0_641
*687 FILLER_0_645
*688 FILLER_0_657
*689 FILLER_0_669
*690 FILLER_0_673
*691 FILLER_0_685
*692 FILLER_0_69
*693 FILLER_0_697
*694 FILLER_0_701
*695 FILLER_0_713
*696 FILLER_0_725
*697 FILLER_0_729
*698 FILLER_0_741
*699 FILLER_0_753
*700 FILLER_0_757
*701 FILLER_0_769
*702 FILLER_0_781
*703 FILLER_0_785
*704 FILLER_0_797
*705 FILLER_0_809
*706 FILLER_0_81
*707 FILLER_0_813
*708 FILLER_0_825
*709 FILLER_0_837
*710 FILLER_0_841
*711 FILLER_0_85
*712 FILLER_0_853
*713 FILLER_0_865
*714 FILLER_0_869
*715 FILLER_0_881
*716 FILLER_0_893
*717 FILLER_0_897
*718 FILLER_0_909
*719 FILLER_0_921
*720 FILLER_0_925
*721 FILLER_0_937
*722 FILLER_0_949
*723 FILLER_0_953
*724 FILLER_0_965
*725 FILLER_0_97
*726 FILLER_0_977
*727 FILLER_0_981
*728 FILLER_0_993
*729 FILLER_100_1005
*730 FILLER_100_1017
*731 FILLER_100_1029
*732 FILLER_100_1035
*733 FILLER_100_1037
*734 FILLER_100_1049
*735 FILLER_100_1061
*736 FILLER_100_1073
*737 FILLER_100_1085
*738 FILLER_100_109
*739 FILLER_100_1091
*740 FILLER_100_1093
*741 FILLER_100_1105
*742 FILLER_100_1117
*743 FILLER_100_1129
*744 FILLER_100_1141
*745 FILLER_100_1147
*746 FILLER_100_1149
*747 FILLER_100_1161
*748 FILLER_100_1173
*749 FILLER_100_1185
*750 FILLER_100_1197
*751 FILLER_100_1203
*752 FILLER_100_1205
*753 FILLER_100_121
*754 FILLER_100_1217
*755 FILLER_100_1229
*756 FILLER_100_1241
*757 FILLER_100_1253
*758 FILLER_100_1259
*759 FILLER_100_1261
*760 FILLER_100_1273
*761 FILLER_100_1285
*762 FILLER_100_1297
*763 FILLER_100_1309
*764 FILLER_100_1315
*765 FILLER_100_1317
*766 FILLER_100_1329
*767 FILLER_100_133
*768 FILLER_100_1341
*769 FILLER_100_1353
*770 FILLER_100_1365
*771 FILLER_100_1371
*772 FILLER_100_1373
*773 FILLER_100_1385
*774 FILLER_100_139
*775 FILLER_100_1397
*776 FILLER_100_1409
*777 FILLER_100_141
*778 FILLER_100_1421
*779 FILLER_100_1427
*780 FILLER_100_1429
*781 FILLER_100_1441
*782 FILLER_100_1453
*783 FILLER_100_1465
*784 FILLER_100_1477
*785 FILLER_100_1483
*786 FILLER_100_1485
*787 FILLER_100_1497
*788 FILLER_100_15
*789 FILLER_100_1509
*790 FILLER_100_1521
*791 FILLER_100_153
*792 FILLER_100_1533
*793 FILLER_100_1539
*794 FILLER_100_1541
*795 FILLER_100_1553
*796 FILLER_100_1565
*797 FILLER_100_1577
*798 FILLER_100_1589
*799 FILLER_100_1595
*800 FILLER_100_1597
*801 FILLER_100_1609
*802 FILLER_100_1621
*803 FILLER_100_1633
*804 FILLER_100_1645
*805 FILLER_100_165
*806 FILLER_100_1651
*807 FILLER_100_1653
*808 FILLER_100_1665
*809 FILLER_100_1677
*810 FILLER_100_1689
*811 FILLER_100_1701
*812 FILLER_100_1707
*813 FILLER_100_1709
*814 FILLER_100_177
*815 FILLER_100_189
*816 FILLER_100_195
*817 FILLER_100_197
*818 FILLER_100_209
*819 FILLER_100_221
*820 FILLER_100_233
*821 FILLER_100_245
*822 FILLER_100_251
*823 FILLER_100_253
*824 FILLER_100_265
*825 FILLER_100_27
*826 FILLER_100_277
*827 FILLER_100_289
*828 FILLER_100_29
*829 FILLER_100_3
*830 FILLER_100_301
*831 FILLER_100_307
*832 FILLER_100_309
*833 FILLER_100_321
*834 FILLER_100_333
*835 FILLER_100_345
*836 FILLER_100_357
*837 FILLER_100_363
*838 FILLER_100_365
*839 FILLER_100_377
*840 FILLER_100_389
*841 FILLER_100_401
*842 FILLER_100_41
*843 FILLER_100_413
*844 FILLER_100_419
*845 FILLER_100_421
*846 FILLER_100_433
*847 FILLER_100_445
*848 FILLER_100_457
*849 FILLER_100_469
*850 FILLER_100_475
*851 FILLER_100_477
*852 FILLER_100_489
*853 FILLER_100_501
*854 FILLER_100_513
*855 FILLER_100_525
*856 FILLER_100_53
*857 FILLER_100_531
*858 FILLER_100_533
*859 FILLER_100_545
*860 FILLER_100_557
*861 FILLER_100_569
*862 FILLER_100_581
*863 FILLER_100_587
*864 FILLER_100_589
*865 FILLER_100_601
*866 FILLER_100_613
*867 FILLER_100_625
*868 FILLER_100_637
*869 FILLER_100_643
*870 FILLER_100_645
*871 FILLER_100_65
*872 FILLER_100_657
*873 FILLER_100_669
*874 FILLER_100_681
*875 FILLER_100_693
*876 FILLER_100_699
*877 FILLER_100_701
*878 FILLER_100_713
*879 FILLER_100_725
*880 FILLER_100_737
*881 FILLER_100_749
*882 FILLER_100_755
*883 FILLER_100_757
*884 FILLER_100_769
*885 FILLER_100_77
*886 FILLER_100_781
*887 FILLER_100_793
*888 FILLER_100_805
*889 FILLER_100_811
*890 FILLER_100_813
*891 FILLER_100_825
*892 FILLER_100_83
*893 FILLER_100_837
*894 FILLER_100_849
*895 FILLER_100_85
*896 FILLER_100_861
*897 FILLER_100_867
*898 FILLER_100_869
*899 FILLER_100_881
*900 FILLER_100_893
*901 FILLER_100_905
*902 FILLER_100_917
*903 FILLER_100_923
*904 FILLER_100_925
*905 FILLER_100_937
*906 FILLER_100_949
*907 FILLER_100_961
*908 FILLER_100_97
*909 FILLER_100_973
*910 FILLER_100_979
*911 FILLER_100_981
*912 FILLER_100_993
*913 FILLER_101_1001
*914 FILLER_101_1007
*915 FILLER_101_1009
*916 FILLER_101_1021
*917 FILLER_101_1033
*918 FILLER_101_1045
*919 FILLER_101_105
*920 FILLER_101_1057
*921 FILLER_101_1063
*922 FILLER_101_1065
*923 FILLER_101_1077
*924 FILLER_101_1089
*925 FILLER_101_1101
*926 FILLER_101_111
*927 FILLER_101_1113
*928 FILLER_101_1119
*929 FILLER_101_1121
*930 FILLER_101_113
*931 FILLER_101_1133
*932 FILLER_101_1145
*933 FILLER_101_1157
*934 FILLER_101_1169
*935 FILLER_101_1175
*936 FILLER_101_1177
*937 FILLER_101_1189
*938 FILLER_101_1201
*939 FILLER_101_1213
*940 FILLER_101_1225
*941 FILLER_101_1231
*942 FILLER_101_1233
*943 FILLER_101_1245
*944 FILLER_101_125
*945 FILLER_101_1257
*946 FILLER_101_1269
*947 FILLER_101_1281
*948 FILLER_101_1287
*949 FILLER_101_1289
*950 FILLER_101_1301
*951 FILLER_101_1313
*952 FILLER_101_1325
*953 FILLER_101_1337
*954 FILLER_101_1343
*955 FILLER_101_1345
*956 FILLER_101_1357
*957 FILLER_101_1369
*958 FILLER_101_137
*959 FILLER_101_1381
*960 FILLER_101_1393
*961 FILLER_101_1399
*962 FILLER_101_1401
*963 FILLER_101_1413
*964 FILLER_101_1425
*965 FILLER_101_1437
*966 FILLER_101_1449
*967 FILLER_101_1455
*968 FILLER_101_1457
*969 FILLER_101_1469
*970 FILLER_101_1481
*971 FILLER_101_149
*972 FILLER_101_1493
*973 FILLER_101_15
*974 FILLER_101_1505
*975 FILLER_101_1511
*976 FILLER_101_1513
*977 FILLER_101_1525
*978 FILLER_101_1537
*979 FILLER_101_1549
*980 FILLER_101_1561
*981 FILLER_101_1567
*982 FILLER_101_1569
*983 FILLER_101_1581
*984 FILLER_101_1593
*985 FILLER_101_1605
*986 FILLER_101_161
*987 FILLER_101_1617
*988 FILLER_101_1623
*989 FILLER_101_1625
*990 FILLER_101_1637
*991 FILLER_101_1649
*992 FILLER_101_1661
*993 FILLER_101_167
*994 FILLER_101_1673
*995 FILLER_101_1679
*996 FILLER_101_1681
*997 FILLER_101_169
*998 FILLER_101_1693
*999 FILLER_101_1705
*1000 FILLER_101_1711
*1001 FILLER_101_181
*1002 FILLER_101_193
*1003 FILLER_101_205
*1004 FILLER_101_217
*1005 FILLER_101_223
*1006 FILLER_101_225
*1007 FILLER_101_237
*1008 FILLER_101_249
*1009 FILLER_101_261
*1010 FILLER_101_27
*1011 FILLER_101_273
*1012 FILLER_101_279
*1013 FILLER_101_281
*1014 FILLER_101_293
*1015 FILLER_101_3
*1016 FILLER_101_305
*1017 FILLER_101_317
*1018 FILLER_101_329
*1019 FILLER_101_335
*1020 FILLER_101_337
*1021 FILLER_101_349
*1022 FILLER_101_361
*1023 FILLER_101_373
*1024 FILLER_101_385
*1025 FILLER_101_39
*1026 FILLER_101_391
*1027 FILLER_101_393
*1028 FILLER_101_405
*1029 FILLER_101_417
*1030 FILLER_101_429
*1031 FILLER_101_441
*1032 FILLER_101_447
*1033 FILLER_101_449
*1034 FILLER_101_461
*1035 FILLER_101_473
*1036 FILLER_101_485
*1037 FILLER_101_497
*1038 FILLER_101_503
*1039 FILLER_101_505
*1040 FILLER_101_51
*1041 FILLER_101_517
*1042 FILLER_101_529
*1043 FILLER_101_541
*1044 FILLER_101_55
*1045 FILLER_101_553
*1046 FILLER_101_559
*1047 FILLER_101_561
*1048 FILLER_101_57
*1049 FILLER_101_573
*1050 FILLER_101_585
*1051 FILLER_101_597
*1052 FILLER_101_609
*1053 FILLER_101_615
*1054 FILLER_101_617
*1055 FILLER_101_629
*1056 FILLER_101_641
*1057 FILLER_101_653
*1058 FILLER_101_665
*1059 FILLER_101_671
*1060 FILLER_101_673
*1061 FILLER_101_685
*1062 FILLER_101_69
*1063 FILLER_101_697
*1064 FILLER_101_709
*1065 FILLER_101_721
*1066 FILLER_101_727
*1067 FILLER_101_729
*1068 FILLER_101_741
*1069 FILLER_101_753
*1070 FILLER_101_765
*1071 FILLER_101_777
*1072 FILLER_101_783
*1073 FILLER_101_785
*1074 FILLER_101_797
*1075 FILLER_101_809
*1076 FILLER_101_81
*1077 FILLER_101_821
*1078 FILLER_101_833
*1079 FILLER_101_839
*1080 FILLER_101_841
*1081 FILLER_101_853
*1082 FILLER_101_865
*1083 FILLER_101_877
*1084 FILLER_101_889
*1085 FILLER_101_895
*1086 FILLER_101_897
*1087 FILLER_101_909
*1088 FILLER_101_921
*1089 FILLER_101_93
*1090 FILLER_101_933
*1091 FILLER_101_945
*1092 FILLER_101_951
*1093 FILLER_101_953
*1094 FILLER_101_965
*1095 FILLER_101_977
*1096 FILLER_101_989
*1097 FILLER_102_1005
*1098 FILLER_102_1017
*1099 FILLER_102_1029
*1100 FILLER_102_1035
*1101 FILLER_102_1037
*1102 FILLER_102_1049
*1103 FILLER_102_1061
*1104 FILLER_102_1073
*1105 FILLER_102_1085
*1106 FILLER_102_109
*1107 FILLER_102_1091
*1108 FILLER_102_1093
*1109 FILLER_102_1105
*1110 FILLER_102_1117
*1111 FILLER_102_1129
*1112 FILLER_102_1141
*1113 FILLER_102_1147
*1114 FILLER_102_1149
*1115 FILLER_102_1161
*1116 FILLER_102_1173
*1117 FILLER_102_1185
*1118 FILLER_102_1197
*1119 FILLER_102_1203
*1120 FILLER_102_1205
*1121 FILLER_102_121
*1122 FILLER_102_1217
*1123 FILLER_102_1229
*1124 FILLER_102_1241
*1125 FILLER_102_1253
*1126 FILLER_102_1259
*1127 FILLER_102_1261
*1128 FILLER_102_1273
*1129 FILLER_102_1285
*1130 FILLER_102_1297
*1131 FILLER_102_1309
*1132 FILLER_102_1315
*1133 FILLER_102_1317
*1134 FILLER_102_1329
*1135 FILLER_102_133
*1136 FILLER_102_1341
*1137 FILLER_102_1353
*1138 FILLER_102_1365
*1139 FILLER_102_1371
*1140 FILLER_102_1373
*1141 FILLER_102_1385
*1142 FILLER_102_139
*1143 FILLER_102_1397
*1144 FILLER_102_1409
*1145 FILLER_102_141
*1146 FILLER_102_1421
*1147 FILLER_102_1427
*1148 FILLER_102_1429
*1149 FILLER_102_1441
*1150 FILLER_102_1453
*1151 FILLER_102_1465
*1152 FILLER_102_1477
*1153 FILLER_102_1483
*1154 FILLER_102_1485
*1155 FILLER_102_1497
*1156 FILLER_102_15
*1157 FILLER_102_1509
*1158 FILLER_102_1521
*1159 FILLER_102_153
*1160 FILLER_102_1533
*1161 FILLER_102_1539
*1162 FILLER_102_1541
*1163 FILLER_102_1553
*1164 FILLER_102_1565
*1165 FILLER_102_1577
*1166 FILLER_102_1589
*1167 FILLER_102_1595
*1168 FILLER_102_1597
*1169 FILLER_102_1609
*1170 FILLER_102_1621
*1171 FILLER_102_1633
*1172 FILLER_102_1645
*1173 FILLER_102_165
*1174 FILLER_102_1651
*1175 FILLER_102_1653
*1176 FILLER_102_1665
*1177 FILLER_102_1677
*1178 FILLER_102_1689
*1179 FILLER_102_1701
*1180 FILLER_102_1707
*1181 FILLER_102_1709
*1182 FILLER_102_177
*1183 FILLER_102_189
*1184 FILLER_102_195
*1185 FILLER_102_197
*1186 FILLER_102_209
*1187 FILLER_102_221
*1188 FILLER_102_233
*1189 FILLER_102_245
*1190 FILLER_102_251
*1191 FILLER_102_253
*1192 FILLER_102_265
*1193 FILLER_102_27
*1194 FILLER_102_277
*1195 FILLER_102_289
*1196 FILLER_102_29
*1197 FILLER_102_3
*1198 FILLER_102_301
*1199 FILLER_102_307
*1200 FILLER_102_309
*1201 FILLER_102_321
*1202 FILLER_102_333
*1203 FILLER_102_345
*1204 FILLER_102_357
*1205 FILLER_102_363
*1206 FILLER_102_365
*1207 FILLER_102_377
*1208 FILLER_102_389
*1209 FILLER_102_401
*1210 FILLER_102_41
*1211 FILLER_102_413
*1212 FILLER_102_419
*1213 FILLER_102_421
*1214 FILLER_102_433
*1215 FILLER_102_445
*1216 FILLER_102_457
*1217 FILLER_102_469
*1218 FILLER_102_475
*1219 FILLER_102_477
*1220 FILLER_102_489
*1221 FILLER_102_501
*1222 FILLER_102_513
*1223 FILLER_102_525
*1224 FILLER_102_53
*1225 FILLER_102_531
*1226 FILLER_102_533
*1227 FILLER_102_545
*1228 FILLER_102_557
*1229 FILLER_102_569
*1230 FILLER_102_581
*1231 FILLER_102_587
*1232 FILLER_102_589
*1233 FILLER_102_601
*1234 FILLER_102_613
*1235 FILLER_102_625
*1236 FILLER_102_637
*1237 FILLER_102_643
*1238 FILLER_102_645
*1239 FILLER_102_65
*1240 FILLER_102_657
*1241 FILLER_102_669
*1242 FILLER_102_681
*1243 FILLER_102_693
*1244 FILLER_102_699
*1245 FILLER_102_701
*1246 FILLER_102_713
*1247 FILLER_102_725
*1248 FILLER_102_737
*1249 FILLER_102_749
*1250 FILLER_102_755
*1251 FILLER_102_757
*1252 FILLER_102_769
*1253 FILLER_102_77
*1254 FILLER_102_781
*1255 FILLER_102_793
*1256 FILLER_102_805
*1257 FILLER_102_811
*1258 FILLER_102_813
*1259 FILLER_102_825
*1260 FILLER_102_83
*1261 FILLER_102_837
*1262 FILLER_102_849
*1263 FILLER_102_85
*1264 FILLER_102_861
*1265 FILLER_102_867
*1266 FILLER_102_869
*1267 FILLER_102_881
*1268 FILLER_102_893
*1269 FILLER_102_905
*1270 FILLER_102_917
*1271 FILLER_102_923
*1272 FILLER_102_925
*1273 FILLER_102_937
*1274 FILLER_102_949
*1275 FILLER_102_961
*1276 FILLER_102_97
*1277 FILLER_102_973
*1278 FILLER_102_979
*1279 FILLER_102_981
*1280 FILLER_102_993
*1281 FILLER_103_1001
*1282 FILLER_103_1007
*1283 FILLER_103_1009
*1284 FILLER_103_1021
*1285 FILLER_103_1033
*1286 FILLER_103_1045
*1287 FILLER_103_105
*1288 FILLER_103_1057
*1289 FILLER_103_1063
*1290 FILLER_103_1065
*1291 FILLER_103_1077
*1292 FILLER_103_1089
*1293 FILLER_103_1101
*1294 FILLER_103_111
*1295 FILLER_103_1113
*1296 FILLER_103_1119
*1297 FILLER_103_1121
*1298 FILLER_103_113
*1299 FILLER_103_1133
*1300 FILLER_103_1145
*1301 FILLER_103_1157
*1302 FILLER_103_1169
*1303 FILLER_103_1175
*1304 FILLER_103_1177
*1305 FILLER_103_1189
*1306 FILLER_103_1201
*1307 FILLER_103_1213
*1308 FILLER_103_1225
*1309 FILLER_103_1231
*1310 FILLER_103_1233
*1311 FILLER_103_1245
*1312 FILLER_103_125
*1313 FILLER_103_1257
*1314 FILLER_103_1269
*1315 FILLER_103_1281
*1316 FILLER_103_1287
*1317 FILLER_103_1289
*1318 FILLER_103_1301
*1319 FILLER_103_1313
*1320 FILLER_103_1325
*1321 FILLER_103_1337
*1322 FILLER_103_1343
*1323 FILLER_103_1345
*1324 FILLER_103_1357
*1325 FILLER_103_1369
*1326 FILLER_103_137
*1327 FILLER_103_1381
*1328 FILLER_103_1393
*1329 FILLER_103_1399
*1330 FILLER_103_1401
*1331 FILLER_103_1413
*1332 FILLER_103_1425
*1333 FILLER_103_1437
*1334 FILLER_103_1449
*1335 FILLER_103_1455
*1336 FILLER_103_1457
*1337 FILLER_103_1469
*1338 FILLER_103_1481
*1339 FILLER_103_149
*1340 FILLER_103_1493
*1341 FILLER_103_15
*1342 FILLER_103_1505
*1343 FILLER_103_1511
*1344 FILLER_103_1513
*1345 FILLER_103_1525
*1346 FILLER_103_1537
*1347 FILLER_103_1549
*1348 FILLER_103_1561
*1349 FILLER_103_1567
*1350 FILLER_103_1569
*1351 FILLER_103_1581
*1352 FILLER_103_1593
*1353 FILLER_103_1605
*1354 FILLER_103_161
*1355 FILLER_103_1617
*1356 FILLER_103_1623
*1357 FILLER_103_1625
*1358 FILLER_103_1637
*1359 FILLER_103_1649
*1360 FILLER_103_1661
*1361 FILLER_103_167
*1362 FILLER_103_1673
*1363 FILLER_103_1679
*1364 FILLER_103_1681
*1365 FILLER_103_169
*1366 FILLER_103_1693
*1367 FILLER_103_1705
*1368 FILLER_103_1711
*1369 FILLER_103_181
*1370 FILLER_103_193
*1371 FILLER_103_205
*1372 FILLER_103_217
*1373 FILLER_103_223
*1374 FILLER_103_225
*1375 FILLER_103_237
*1376 FILLER_103_249
*1377 FILLER_103_261
*1378 FILLER_103_27
*1379 FILLER_103_273
*1380 FILLER_103_279
*1381 FILLER_103_281
*1382 FILLER_103_293
*1383 FILLER_103_3
*1384 FILLER_103_305
*1385 FILLER_103_317
*1386 FILLER_103_329
*1387 FILLER_103_335
*1388 FILLER_103_337
*1389 FILLER_103_349
*1390 FILLER_103_361
*1391 FILLER_103_373
*1392 FILLER_103_385
*1393 FILLER_103_39
*1394 FILLER_103_391
*1395 FILLER_103_393
*1396 FILLER_103_405
*1397 FILLER_103_417
*1398 FILLER_103_429
*1399 FILLER_103_441
*1400 FILLER_103_447
*1401 FILLER_103_449
*1402 FILLER_103_461
*1403 FILLER_103_473
*1404 FILLER_103_485
*1405 FILLER_103_497
*1406 FILLER_103_503
*1407 FILLER_103_505
*1408 FILLER_103_51
*1409 FILLER_103_517
*1410 FILLER_103_529
*1411 FILLER_103_541
*1412 FILLER_103_55
*1413 FILLER_103_553
*1414 FILLER_103_559
*1415 FILLER_103_561
*1416 FILLER_103_57
*1417 FILLER_103_573
*1418 FILLER_103_585
*1419 FILLER_103_597
*1420 FILLER_103_609
*1421 FILLER_103_615
*1422 FILLER_103_617
*1423 FILLER_103_629
*1424 FILLER_103_641
*1425 FILLER_103_653
*1426 FILLER_103_665
*1427 FILLER_103_671
*1428 FILLER_103_673
*1429 FILLER_103_685
*1430 FILLER_103_69
*1431 FILLER_103_697
*1432 FILLER_103_709
*1433 FILLER_103_721
*1434 FILLER_103_727
*1435 FILLER_103_729
*1436 FILLER_103_741
*1437 FILLER_103_753
*1438 FILLER_103_765
*1439 FILLER_103_777
*1440 FILLER_103_783
*1441 FILLER_103_785
*1442 FILLER_103_797
*1443 FILLER_103_809
*1444 FILLER_103_81
*1445 FILLER_103_821
*1446 FILLER_103_833
*1447 FILLER_103_839
*1448 FILLER_103_841
*1449 FILLER_103_853
*1450 FILLER_103_865
*1451 FILLER_103_877
*1452 FILLER_103_889
*1453 FILLER_103_895
*1454 FILLER_103_897
*1455 FILLER_103_909
*1456 FILLER_103_921
*1457 FILLER_103_93
*1458 FILLER_103_933
*1459 FILLER_103_945
*1460 FILLER_103_951
*1461 FILLER_103_953
*1462 FILLER_103_965
*1463 FILLER_103_977
*1464 FILLER_103_989
*1465 FILLER_104_1005
*1466 FILLER_104_1017
*1467 FILLER_104_1029
*1468 FILLER_104_1035
*1469 FILLER_104_1037
*1470 FILLER_104_1049
*1471 FILLER_104_1061
*1472 FILLER_104_1073
*1473 FILLER_104_1085
*1474 FILLER_104_109
*1475 FILLER_104_1091
*1476 FILLER_104_1093
*1477 FILLER_104_1105
*1478 FILLER_104_1117
*1479 FILLER_104_1129
*1480 FILLER_104_1141
*1481 FILLER_104_1147
*1482 FILLER_104_1149
*1483 FILLER_104_1161
*1484 FILLER_104_1173
*1485 FILLER_104_1185
*1486 FILLER_104_1197
*1487 FILLER_104_1203
*1488 FILLER_104_1205
*1489 FILLER_104_121
*1490 FILLER_104_1217
*1491 FILLER_104_1229
*1492 FILLER_104_1241
*1493 FILLER_104_1253
*1494 FILLER_104_1259
*1495 FILLER_104_1261
*1496 FILLER_104_1273
*1497 FILLER_104_1285
*1498 FILLER_104_1297
*1499 FILLER_104_1309
*1500 FILLER_104_1315
*1501 FILLER_104_1317
*1502 FILLER_104_1329
*1503 FILLER_104_133
*1504 FILLER_104_1341
*1505 FILLER_104_1353
*1506 FILLER_104_1365
*1507 FILLER_104_1371
*1508 FILLER_104_1373
*1509 FILLER_104_1385
*1510 FILLER_104_139
*1511 FILLER_104_1397
*1512 FILLER_104_1409
*1513 FILLER_104_141
*1514 FILLER_104_1421
*1515 FILLER_104_1427
*1516 FILLER_104_1429
*1517 FILLER_104_1441
*1518 FILLER_104_1453
*1519 FILLER_104_1465
*1520 FILLER_104_1477
*1521 FILLER_104_1483
*1522 FILLER_104_1485
*1523 FILLER_104_1497
*1524 FILLER_104_15
*1525 FILLER_104_1509
*1526 FILLER_104_1521
*1527 FILLER_104_153
*1528 FILLER_104_1533
*1529 FILLER_104_1539
*1530 FILLER_104_1541
*1531 FILLER_104_1553
*1532 FILLER_104_1565
*1533 FILLER_104_1577
*1534 FILLER_104_1589
*1535 FILLER_104_1595
*1536 FILLER_104_1597
*1537 FILLER_104_1609
*1538 FILLER_104_1621
*1539 FILLER_104_1633
*1540 FILLER_104_1645
*1541 FILLER_104_165
*1542 FILLER_104_1651
*1543 FILLER_104_1653
*1544 FILLER_104_1665
*1545 FILLER_104_1677
*1546 FILLER_104_1689
*1547 FILLER_104_1701
*1548 FILLER_104_1707
*1549 FILLER_104_1709
*1550 FILLER_104_177
*1551 FILLER_104_189
*1552 FILLER_104_195
*1553 FILLER_104_197
*1554 FILLER_104_209
*1555 FILLER_104_221
*1556 FILLER_104_233
*1557 FILLER_104_245
*1558 FILLER_104_251
*1559 FILLER_104_253
*1560 FILLER_104_265
*1561 FILLER_104_27
*1562 FILLER_104_277
*1563 FILLER_104_289
*1564 FILLER_104_29
*1565 FILLER_104_3
*1566 FILLER_104_301