*SPEF "ieee 1481-1999"
*DESIGN "wrapped_tms1x00"
*DATE "11:11:11 Fri 11 11, 1111"
*VENDOR "OpenRCX"
*PROGRAM "Parallel Extraction"
*VERSION "1.0"
*DESIGN_FLOW "NAME_SCOPE LOCAL" "PIN_CAP NONE"
*DIVIDER /
*DELIMITER :
*BUS_DELIMITER []
*T_UNIT 1 NS
*C_UNIT 1 PF
*R_UNIT 1 OHM
*L_UNIT 1 HENRY

*NAME_MAP
*1 io_in[0]
*2 io_in[10]
*3 io_in[11]
*4 io_in[12]
*5 io_in[13]
*6 io_in[14]
*7 io_in[15]
*8 io_in[16]
*9 io_in[17]
*10 io_in[18]
*11 io_in[19]
*12 io_in[1]
*13 io_in[20]
*14 io_in[21]
*15 io_in[22]
*16 io_in[23]
*17 io_in[24]
*18 io_in[25]
*19 io_in[26]
*20 io_in[27]
*21 io_in[28]
*22 io_in[29]
*23 io_in[2]
*24 io_in[30]
*25 io_in[31]
*26 io_in[32]
*27 io_in[33]
*28 io_in[34]
*29 io_in[35]
*30 io_in[36]
*31 io_in[37]
*32 io_in[3]
*33 io_in[4]
*34 io_in[5]
*35 io_in[6]
*36 io_in[7]
*37 io_in[8]
*38 io_in[9]
*39 net190
*40 net149
*41 net150
*42 net151
*43 net152
*44 net153
*45 net154
*46 net155
*47 net156
*48 net157
*49 net158
*50 net191
*51 net159
*52 net160
*53 net161
*54 net162
*55 net163
*56 net164
*57 net165
*58 net166
*59 net167
*60 net168
*61 net192
*62 net169
*63 net170
*64 net171
*65 net172
*66 net173
*67 net174
*68 net175
*69 net176
*70 net193
*71 net194
*72 net195
*73 net196
*74 net197
*75 net198
*76 net199
*77 net177
*78 io_out[10]
*79 io_out[11]
*80 io_out[12]
*81 io_out[13]
*82 io_out[14]
*83 io_out[15]
*84 io_out[16]
*85 io_out[17]
*86 io_out[18]
*87 io_out[19]
*88 net178
*89 io_out[20]
*90 io_out[21]
*91 io_out[22]
*92 io_out[23]
*93 io_out[24]
*94 io_out[25]
*95 io_out[26]
*96 io_out[27]
*97 io_out[28]
*98 io_out[29]
*99 net179
*100 io_out[30]
*101 io_out[31]
*102 io_out[32]
*103 io_out[33]
*104 net187
*105 net188
*106 io_out[36]
*107 io_out[37]
*108 net180
*109 net181
*110 net182
*111 net183
*112 net184
*113 net185
*114 net186
*115 oram_addr[0]
*116 oram_addr[1]
*117 oram_addr[2]
*118 oram_addr[3]
*119 oram_addr[4]
*120 oram_addr[5]
*121 oram_addr[6]
*122 oram_addr[7]
*123 net189
*124 oram_csb
*125 oram_value[0]
*126 oram_value[10]
*127 oram_value[11]
*128 oram_value[12]
*129 oram_value[13]
*130 oram_value[14]
*131 oram_value[15]
*132 oram_value[16]
*133 oram_value[17]
*134 oram_value[18]
*135 oram_value[19]
*136 oram_value[1]
*137 oram_value[20]
*138 oram_value[21]
*139 oram_value[22]
*140 oram_value[23]
*141 oram_value[24]
*142 oram_value[25]
*143 oram_value[26]
*144 oram_value[27]
*145 oram_value[28]
*146 oram_value[29]
*147 oram_value[2]
*148 oram_value[30]
*149 oram_value[31]
*150 oram_value[3]
*151 oram_value[4]
*152 oram_value[5]
*153 oram_value[6]
*154 oram_value[7]
*155 oram_value[8]
*156 oram_value[9]
*157 ram_adrb[0]
*158 ram_adrb[1]
*159 ram_adrb[2]
*160 ram_adrb[3]
*161 ram_adrb[4]
*162 ram_adrb[5]
*163 ram_adrb[6]
*164 ram_adrb[7]
*165 ram_adrb[8]
*166 ram_csb
*167 ram_val[0]
*168 ram_val[10]
*169 ram_val[11]
*170 ram_val[12]
*171 ram_val[13]
*172 ram_val[14]
*173 ram_val[15]
*174 ram_val[16]
*175 ram_val[17]
*176 ram_val[18]
*177 ram_val[19]
*178 ram_val[1]
*179 ram_val[20]
*180 ram_val[21]
*181 ram_val[22]
*182 ram_val[23]
*183 ram_val[24]
*184 ram_val[25]
*185 ram_val[26]
*186 ram_val[27]
*187 ram_val[28]
*188 ram_val[29]
*189 ram_val[2]
*190 ram_val[30]
*191 ram_val[31]
*192 ram_val[3]
*193 ram_val[4]
*194 ram_val[5]
*195 ram_val[6]
*196 ram_val[7]
*197 ram_val[8]
*198 ram_val[9]
*199 ram_web
*202 wb_clk_i
*203 wb_rst_i
*204 wbs_ack_o
*205 wbs_adr_i[0]
*206 wbs_adr_i[10]
*207 wbs_adr_i[11]
*208 wbs_adr_i[12]
*209 wbs_adr_i[13]
*210 wbs_adr_i[14]
*211 wbs_adr_i[15]
*212 wbs_adr_i[16]
*213 wbs_adr_i[17]
*214 wbs_adr_i[18]
*215 wbs_adr_i[19]
*216 wbs_adr_i[1]
*217 wbs_adr_i[20]
*218 wbs_adr_i[21]
*219 wbs_adr_i[22]
*220 wbs_adr_i[23]
*221 wbs_adr_i[24]
*222 wbs_adr_i[25]
*223 wbs_adr_i[26]
*224 wbs_adr_i[27]
*225 wbs_adr_i[28]
*226 wbs_adr_i[29]
*227 wbs_adr_i[2]
*228 wbs_adr_i[30]
*229 wbs_adr_i[31]
*230 wbs_adr_i[3]
*231 wbs_adr_i[4]
*232 wbs_adr_i[5]
*233 wbs_adr_i[6]
*234 wbs_adr_i[7]
*235 wbs_adr_i[8]
*236 wbs_adr_i[9]
*237 wbs_cyc_i
*238 wbs_dat_i[0]
*239 wbs_dat_i[10]
*240 wbs_dat_i[11]
*241 wbs_dat_i[12]
*242 wbs_dat_i[13]
*243 wbs_dat_i[14]
*244 wbs_dat_i[15]
*245 wbs_dat_i[16]
*246 wbs_dat_i[17]
*247 wbs_dat_i[18]
*248 wbs_dat_i[19]
*249 wbs_dat_i[1]
*250 wbs_dat_i[20]
*251 wbs_dat_i[21]
*252 wbs_dat_i[22]
*253 wbs_dat_i[23]
*254 wbs_dat_i[24]
*255 wbs_dat_i[25]
*256 wbs_dat_i[26]
*257 wbs_dat_i[27]
*258 wbs_dat_i[28]
*259 wbs_dat_i[29]
*260 wbs_dat_i[2]
*261 wbs_dat_i[30]
*262 wbs_dat_i[31]
*263 wbs_dat_i[3]
*264 wbs_dat_i[4]
*265 wbs_dat_i[5]
*266 wbs_dat_i[6]
*267 wbs_dat_i[7]
*268 wbs_dat_i[8]
*269 wbs_dat_i[9]
*270 wbs_dat_o[0]
*271 wbs_dat_o[10]
*272 wbs_dat_o[11]
*273 wbs_dat_o[12]
*274 wbs_dat_o[13]
*275 wbs_dat_o[14]
*276 wbs_dat_o[15]
*277 wbs_dat_o[16]
*278 wbs_dat_o[17]
*279 wbs_dat_o[18]
*280 wbs_dat_o[19]
*281 wbs_dat_o[1]
*282 wbs_dat_o[20]
*283 wbs_dat_o[21]
*284 wbs_dat_o[22]
*285 wbs_dat_o[23]
*286 wbs_dat_o[24]
*287 wbs_dat_o[25]
*288 wbs_dat_o[26]
*289 wbs_dat_o[27]
*290 wbs_dat_o[28]
*291 wbs_dat_o[29]
*292 wbs_dat_o[2]
*293 wbs_dat_o[30]
*294 wbs_dat_o[31]
*295 wbs_dat_o[3]
*296 wbs_dat_o[4]
*297 wbs_dat_o[5]
*298 wbs_dat_o[6]
*299 wbs_dat_o[7]
*300 wbs_dat_o[8]
*301 wbs_dat_o[9]
*302 wbs_stb_i
*303 wbs_we_i
*304 K_override\[0\]
*305 K_override\[1\]
*306 K_override\[2\]
*307 K_override\[3\]
*308 _0000_
*309 _0001_
*310 _0002_
*311 _0003_
*312 _0004_
*313 _0005_
*314 _0006_
*315 _0007_
*316 _0008_
*317 _0009_
*318 _0010_
*319 _0011_
*320 _0012_
*321 _0013_
*322 _0014_
*323 _0015_
*324 _0016_
*325 _0017_
*326 _0018_
*327 _0019_
*328 _0020_
*329 _0021_
*330 _0022_
*331 _0023_
*332 _0024_
*333 _0025_
*334 _0026_
*335 _0027_
*336 _0028_
*337 _0029_
*338 _0030_
*339 _0031_
*340 _0032_
*341 _0033_
*342 _0034_
*343 _0035_
*344 _0036_
*345 _0037_
*346 _0038_
*347 _0039_
*348 _0040_
*349 _0041_
*350 _0042_
*351 _0043_
*352 _0044_
*353 _0045_
*354 _0046_
*355 _0047_
*356 _0048_
*357 _0049_
*358 _0050_
*359 _0051_
*360 _0052_
*361 _0053_
*362 _0054_
*363 _0055_
*364 _0056_
*365 _0057_
*366 _0058_
*367 _0059_
*368 _0060_
*369 _0061_
*370 _0062_
*371 _0063_
*372 _0064_
*373 _0065_
*374 _0066_
*375 _0067_
*376 _0068_
*377 _0069_
*378 _0070_
*379 _0071_
*380 _0072_
*381 _0073_
*382 _0074_
*383 _0075_
*384 _0076_
*385 _0077_
*386 _0078_
*387 _0079_
*388 _0080_
*389 _0081_
*390 _0082_
*391 _0083_
*392 _0084_
*393 _0085_
*394 _0086_
*395 _0087_
*396 _0088_
*397 _0089_
*398 _0090_
*399 _0091_
*400 _0092_
*401 _0093_
*402 _0094_
*403 _0095_
*404 _0096_
*405 _0097_
*406 _0098_
*407 _0099_
*408 _0100_
*409 _0101_
*410 _0102_
*411 _0103_
*412 _0104_
*413 _0105_
*414 _0106_
*415 _0107_
*416 _0108_
*417 _0109_
*418 _0110_
*419 _0111_
*420 _0112_
*421 _0113_
*422 _0114_
*423 _0115_
*424 _0116_
*425 _0117_
*426 _0118_
*427 _0119_
*428 _0120_
*429 _0121_
*430 _0122_
*431 _0123_
*432 _0124_
*433 _0125_
*434 _0126_
*435 _0127_
*436 _0128_
*437 _0129_
*438 _0130_
*439 _0131_
*440 _0132_
*441 _0133_
*442 _0134_
*443 _0135_
*444 _0136_
*445 _0137_
*446 _0138_
*447 _0139_
*448 _0140_
*449 _0141_
*450 _0142_
*451 _0143_
*452 _0144_
*453 _0145_
*454 _0146_
*455 _0147_
*456 _0148_
*457 _0149_
*458 _0150_
*459 _0151_
*460 _0152_
*461 _0153_
*462 _0154_
*463 _0155_
*464 _0156_
*465 _0157_
*466 _0158_
*467 _0159_
*468 _0160_
*469 _0161_
*470 _0162_
*471 _0163_
*472 _0164_
*473 _0165_
*474 _0166_
*475 _0167_
*476 _0168_
*477 _0169_
*478 _0170_
*479 _0171_
*480 _0172_
*481 _0173_
*482 _0174_
*483 _0175_
*484 _0176_
*485 _0177_
*486 _0178_
*487 _0179_
*488 _0180_
*489 _0181_
*490 _0182_
*491 _0183_
*492 _0184_
*493 _0185_
*494 _0186_
*495 _0187_
*496 _0188_
*497 _0189_
*498 _0190_
*499 _0191_
*500 _0192_
*501 _0193_
*502 _0194_
*503 _0195_
*504 _0196_
*505 _0197_
*506 _0198_
*507 _0199_
*508 _0200_
*509 _0201_
*510 _0202_
*511 _0203_
*512 _0204_
*513 _0205_
*514 _0206_
*515 _0207_
*516 _0208_
*517 _0209_
*518 _0210_
*519 _0211_
*520 _0212_
*521 _0213_
*522 _0214_
*523 _0215_
*524 _0216_
*525 _0217_
*526 _0218_
*527 _0219_
*528 _0220_
*529 _0221_
*530 _0222_
*531 _0223_
*532 _0224_
*533 _0225_
*534 _0226_
*535 _0227_
*536 _0228_
*537 _0229_
*538 _0230_
*539 _0231_
*540 _0232_
*541 _0233_
*542 _0234_
*543 _0235_
*544 _0236_
*545 _0237_
*546 _0238_
*547 _0239_
*548 _0240_
*549 _0241_
*550 _0242_
*551 _0243_
*552 _0244_
*553 _0245_
*554 _0246_
*555 _0247_
*556 _0248_
*557 _0249_
*558 _0250_
*559 _0251_
*560 _0252_
*561 _0253_
*562 _0254_
*563 _0255_
*564 _0256_
*565 _0257_
*566 _0258_
*567 _0259_
*568 _0260_
*569 _0261_
*570 _0262_
*571 _0263_
*572 _0264_
*573 _0265_
*574 _0266_
*575 _0267_
*576 _0268_
*577 _0269_
*578 _0270_
*579 _0271_
*580 _0272_
*581 _0273_
*582 _0274_
*583 _0275_
*584 _0276_
*585 _0277_
*586 _0278_
*587 _0279_
*588 _0280_
*589 _0281_
*590 _0282_
*591 _0283_
*592 _0284_
*593 _0285_
*594 _0286_
*595 _0287_
*596 _0288_
*597 _0289_
*598 _0290_
*599 _0291_
*600 _0292_
*601 _0293_
*602 _0294_
*603 _0295_
*604 _0296_
*605 _0297_
*606 _0298_
*607 _0299_
*608 _0300_
*609 _0301_
*610 _0302_
*611 _0303_
*612 _0304_
*613 _0305_
*614 _0306_
*615 _0307_
*616 _0308_
*617 _0309_
*618 _0310_
*619 _0311_
*620 _0312_
*621 _0313_
*622 _0314_
*623 _0315_
*624 _0316_
*625 _0317_
*626 _0318_
*627 _0319_
*628 _0320_
*629 _0321_
*630 _0322_
*631 _0323_
*632 _0324_
*633 _0325_
*634 _0326_
*635 _0327_
*636 _0328_
*637 _0329_
*638 _0330_
*639 _0331_
*640 _0332_
*641 _0333_
*642 _0334_
*643 _0335_
*644 _0336_
*645 _0337_
*646 _0338_
*647 _0339_
*648 _0340_
*649 _0341_
*650 _0342_
*651 _0343_
*652 _0344_
*653 _0345_
*654 _0346_
*655 _0347_
*656 _0348_
*657 _0349_
*658 _0350_
*659 _0351_
*660 _0352_
*661 _0353_
*662 _0354_
*663 _0355_
*664 _0356_
*665 _0357_
*666 _0358_
*667 _0359_
*668 _0360_
*669 _0361_
*670 _0362_
*671 _0363_
*672 _0364_
*673 _0365_
*674 _0366_
*675 _0367_
*676 _0368_
*677 _0369_
*678 _0370_
*679 _0371_
*680 _0372_
*681 _0373_
*682 _0374_
*683 _0375_
*684 _0376_
*685 _0377_
*686 _0378_
*687 _0379_
*688 _0380_
*689 _0381_
*690 _0382_
*691 _0383_
*692 _0384_
*693 _0385_
*694 _0386_
*695 _0387_
*696 _0388_
*697 _0389_
*698 _0390_
*699 _0391_
*700 _0392_
*701 _0393_
*702 _0394_
*703 _0395_
*704 _0396_
*705 _0397_
*706 _0398_
*707 _0399_
*708 _0400_
*709 _0401_
*710 _0402_
*711 _0403_
*712 _0404_
*713 _0405_
*714 _0406_
*715 _0407_
*716 _0408_
*717 _0409_
*718 _0410_
*719 _0411_
*720 _0412_
*721 _0413_
*722 _0414_
*723 _0415_
*724 _0416_
*725 _0417_
*726 _0418_
*727 _0419_
*728 _0420_
*729 _0421_
*730 _0422_
*731 _0423_
*732 _0424_
*733 _0425_
*734 _0426_
*735 _0427_
*736 _0428_
*737 _0429_
*738 _0430_
*739 _0431_
*740 _0432_
*741 _0433_
*742 _0434_
*743 _0435_
*744 _0436_
*745 _0437_
*746 _0438_
*747 _0439_
*748 _0440_
*749 _0441_
*750 _0442_
*751 _0443_
*752 _0444_
*753 _0445_
*754 _0446_
*755 _0447_
*756 _0448_
*757 _0449_
*758 _0450_
*759 _0451_
*760 _0452_
*761 _0453_
*762 _0454_
*763 _0455_
*764 _0456_
*765 _0457_
*766 _0458_
*767 _0459_
*768 _0460_
*769 _0461_
*770 _0462_
*771 _0463_
*772 _0464_
*773 _0465_
*774 _0466_
*775 _0467_
*776 _0468_
*777 _0469_
*778 _0470_
*779 _0471_
*780 _0472_
*781 _0473_
*782 _0474_
*783 _0475_
*784 _0476_
*785 _0477_
*786 _0478_
*787 _0479_
*788 _0480_
*789 _0481_
*790 _0482_
*791 _0483_
*792 _0484_
*793 _0485_
*794 _0486_
*795 _0487_
*796 _0488_
*797 _0489_
*798 _0490_
*799 _0491_
*800 _0492_
*801 _0493_
*802 _0494_
*803 _0495_
*804 _0496_
*805 _0497_
*806 _0498_
*807 _0499_
*808 _0500_
*809 _0501_
*810 _0502_
*811 _0503_
*812 _0504_
*813 _0505_
*814 _0506_
*815 _0507_
*816 _0508_
*817 _0509_
*818 _0510_
*819 _0511_
*820 _0512_
*821 _0513_
*822 _0514_
*823 _0515_
*824 _0516_
*825 _0517_
*826 _0518_
*827 _0519_
*828 _0520_
*829 _0521_
*830 _0522_
*831 _0523_
*832 _0524_
*833 _0525_
*834 _0526_
*835 _0527_
*836 _0528_
*837 _0529_
*838 _0530_
*839 _0531_
*840 _0532_
*841 _0533_
*842 _0534_
*843 _0535_
*844 _0536_
*845 _0537_
*846 _0538_
*847 _0539_
*848 _0540_
*849 _0541_
*850 _0542_
*851 _0543_
*852 _0544_
*853 _0545_
*854 _0546_
*855 _0547_
*856 _0548_
*857 _0549_
*858 _0550_
*859 _0551_
*860 _0552_
*861 _0553_
*862 _0554_
*863 _0555_
*864 _0556_
*865 _0557_
*866 _0558_
*867 _0559_
*868 _0560_
*869 _0561_
*870 _0562_
*871 _0563_
*872 _0564_
*873 _0565_
*874 _0566_
*875 _0567_
*876 _0568_
*877 _0569_
*878 _0570_
*879 _0571_
*880 _0572_
*881 _0573_
*882 _0574_
*883 _0575_
*884 _0576_
*885 _0577_
*886 _0578_
*887 _0579_
*888 _0580_
*889 _0581_
*890 _0582_
*891 _0583_
*892 _0584_
*893 _0585_
*894 _0586_
*895 _0587_
*896 _0588_
*897 _0589_
*898 _0590_
*899 _0591_
*900 _0592_
*901 _0593_
*902 _0594_
*903 _0595_
*904 _0596_
*905 _0597_
*906 _0598_
*907 _0599_
*908 _0600_
*909 _0601_
*910 _0602_
*911 _0603_
*912 _0604_
*913 _0605_
*914 _0606_
*915 _0607_
*916 _0608_
*917 _0609_
*918 _0610_
*919 _0611_
*920 _0612_
*921 _0613_
*922 _0614_
*923 _0615_
*924 _0616_
*925 _0617_
*926 _0618_
*927 _0619_
*928 _0620_
*929 _0621_
*930 _0622_
*931 _0623_
*932 _0624_
*933 _0625_
*934 _0626_
*935 _0627_
*936 _0628_
*937 _0629_
*938 _0630_
*939 _0631_
*940 _0632_
*941 _0633_
*942 _0634_
*943 _0635_
*944 _0636_
*945 _0637_
*946 _0638_
*947 _0639_
*948 _0640_
*949 _0641_
*950 _0642_
*951 _0643_
*952 _0644_
*953 _0645_
*954 _0646_
*955 _0647_
*956 _0648_
*957 _0649_
*958 _0650_
*959 _0651_
*960 _0652_
*961 _0653_
*962 _0654_
*963 _0655_
*964 _0656_
*965 _0657_
*966 _0658_
*967 _0659_
*968 _0660_
*969 _0661_
*970 _0662_
*971 _0663_
*972 _0664_
*973 _0665_
*974 _0666_
*975 _0667_
*976 _0668_
*977 _0669_
*978 _0670_
*979 _0671_
*980 _0672_
*981 _0673_
*982 _0674_
*983 _0675_
*984 _0676_
*985 _0677_
*986 _0678_
*987 _0679_
*988 _0680_
*989 _0681_
*990 _0682_
*991 _0683_
*992 _0684_
*993 _0685_
*994 _0686_
*995 _0687_
*996 _0688_
*997 _0689_
*998 _0690_
*999 _0691_
*1000 _0692_
*1001 _0693_
*1002 _0694_
*1003 _0695_
*1004 _0696_
*1005 _0697_
*1006 _0698_
*1007 _0699_
*1008 _0700_
*1009 _0701_
*1010 _0702_
*1011 _0703_
*1012 _0704_
*1013 _0705_
*1014 _0706_
*1015 _0707_
*1016 _0708_
*1017 _0709_
*1018 _0710_
*1019 _0711_
*1020 _0712_
*1021 _0713_
*1022 _0714_
*1023 _0715_
*1024 _0716_
*1025 _0717_
*1026 _0718_
*1027 _0719_
*1028 _0720_
*1029 _0721_
*1030 _0722_
*1031 _0723_
*1032 _0724_
*1033 _0725_
*1034 _0726_
*1035 _0727_
*1036 _0728_
*1037 _0729_
*1038 _0730_
*1039 _0731_
*1040 _0732_
*1041 _0733_
*1042 _0734_
*1043 _0735_
*1044 _0736_
*1045 _0737_
*1046 _0738_
*1047 _0739_
*1048 _0740_
*1049 _0741_
*1050 _0742_
*1051 _0743_
*1052 _0744_
*1053 _0745_
*1054 _0746_
*1055 _0747_
*1056 _0748_
*1057 _0749_
*1058 _0750_
*1059 _0751_
*1060 _0752_
*1061 _0753_
*1062 _0754_
*1063 _0755_
*1064 _0756_
*1065 _0757_
*1066 _0758_
*1067 _0759_
*1068 _0760_
*1069 _0761_
*1070 _0762_
*1071 _0763_
*1072 _0764_
*1073 _0765_
*1074 _0766_
*1075 _0767_
*1076 _0768_
*1077 _0769_
*1078 _0770_
*1079 _0771_
*1080 _0772_
*1081 _0773_
*1082 _0774_
*1083 _0775_
*1084 _0776_
*1085 _0777_
*1086 _0778_
*1087 _0779_
*1088 _0780_
*1089 _0781_
*1090 _0782_
*1091 _0783_
*1092 _0784_
*1093 _0785_
*1094 _0786_
*1095 _0787_
*1096 _0788_
*1097 _0789_
*1098 _0790_
*1099 _0791_
*1100 _0792_
*1101 _0793_
*1102 _0794_
*1103 _0795_
*1104 _0796_
*1105 _0797_
*1106 _0798_
*1107 _0799_
*1108 _0800_
*1109 _0801_
*1110 _0802_
*1111 _0803_
*1112 _0804_
*1113 _0805_
*1114 _0806_
*1115 _0807_
*1116 _0808_
*1117 _0809_
*1118 _0810_
*1119 _0811_
*1120 _0812_
*1121 _0813_
*1122 _0814_
*1123 _0815_
*1124 _0816_
*1125 _0817_
*1126 _0818_
*1127 _0819_
*1128 _0820_
*1129 _0821_
*1130 _0822_
*1131 _0823_
*1132 _0824_
*1133 _0825_
*1134 _0826_
*1135 _0827_
*1136 _0828_
*1137 _0829_
*1138 _0830_
*1139 _0831_
*1140 _0832_
*1141 _0833_
*1142 _0834_
*1143 _0835_
*1144 _0836_
*1145 _0837_
*1146 _0838_
*1147 _0839_
*1148 _0840_
*1149 _0841_
*1150 _0842_
*1151 _0843_
*1152 _0844_
*1153 _0845_
*1154 _0846_
*1155 _0847_
*1156 _0848_
*1157 _0849_
*1158 _0850_
*1159 _0851_
*1160 _0852_
*1161 _0853_
*1162 _0854_
*1163 _0855_
*1164 _0856_
*1165 _0857_
*1166 _0858_
*1167 _0859_
*1168 _0860_
*1169 _0861_
*1170 _0862_
*1171 _0863_
*1172 _0864_
*1173 _0865_
*1174 _0866_
*1175 _0867_
*1176 _0868_
*1177 _0869_
*1178 _0870_
*1179 _0871_
*1180 _0872_
*1181 _0873_
*1182 _0874_
*1183 _0875_
*1184 _0876_
*1185 _0877_
*1186 _0878_
*1187 _0879_
*1188 _0880_
*1189 _0881_
*1190 _0882_
*1191 _0883_
*1192 _0884_
*1193 _0885_
*1194 _0886_
*1195 _0887_
*1196 _0888_
*1197 _0889_
*1198 _0890_
*1199 _0891_
*1200 _0892_
*1201 _0893_
*1202 _0894_
*1203 _0895_
*1204 _0896_
*1205 _0897_
*1206 _0898_
*1207 _0899_
*1208 _0900_
*1209 _0901_
*1210 _0902_
*1211 _0903_
*1212 _0904_
*1213 _0905_
*1214 _0906_
*1215 _0907_
*1216 _0908_
*1217 _0909_
*1218 _0910_
*1219 _0911_
*1220 _0912_
*1221 _0913_
*1222 _0914_
*1223 _0915_
*1224 _0916_
*1225 _0917_
*1226 _0918_
*1227 _0919_
*1228 _0920_
*1229 _0921_
*1230 _0922_
*1231 _0923_
*1232 _0924_
*1233 _0925_
*1234 _0926_
*1235 _0927_
*1236 _0928_
*1237 _0929_
*1238 _0930_
*1239 _0931_
*1240 _0932_
*1241 _0933_
*1242 _0934_
*1243 _0935_
*1244 _0936_
*1245 _0937_
*1246 _0938_
*1247 _0939_
*1248 _0940_
*1249 _0941_
*1250 _0942_
*1251 _0943_
*1252 _0944_
*1253 _0945_
*1254 _0946_
*1255 _0947_
*1256 _0948_
*1257 _0949_
*1258 _0950_
*1259 _0951_
*1260 _0952_
*1261 _0953_
*1262 _0954_
*1263 _0955_
*1264 _0956_
*1265 _0957_
*1266 _0958_
*1267 _0959_
*1268 _0960_
*1269 _0961_
*1270 _0962_
*1271 _0963_
*1272 _0964_
*1273 _0965_
*1274 _0966_
*1275 _0967_
*1276 _0968_
*1277 _0969_
*1278 _0970_
*1279 _0971_
*1280 _0972_
*1281 _0973_
*1282 _0974_
*1283 _0975_
*1284 _0976_
*1285 _0977_
*1286 _0978_
*1287 _0979_
*1288 _0980_
*1289 _0981_
*1290 _0982_
*1291 _0983_
*1292 _0984_
*1293 _0985_
*1294 _0986_
*1295 _0987_
*1296 _0988_
*1297 _0989_
*1298 _0990_
*1299 _0991_
*1300 _0992_
*1301 _0993_
*1302 _0994_
*1303 _0995_
*1304 _0996_
*1305 _0997_
*1306 _0998_
*1307 _0999_
*1308 _1000_
*1309 _1001_
*1310 _1002_
*1311 _1003_
*1312 _1004_
*1313 _1005_
*1314 _1006_
*1315 _1007_
*1316 _1008_
*1317 _1009_
*1318 _1010_
*1319 _1011_
*1320 _1012_
*1321 _1013_
*1322 _1014_
*1323 _1015_
*1324 _1016_
*1325 _1017_
*1326 _1018_
*1327 _1019_
*1328 _1020_
*1329 _1021_
*1330 _1022_
*1331 _1023_
*1332 _1024_
*1333 _1025_
*1334 _1026_
*1335 _1027_
*1336 _1028_
*1337 _1029_
*1338 _1030_
*1339 _1031_
*1340 _1032_
*1341 _1033_
*1342 _1034_
*1343 _1035_
*1344 _1036_
*1345 _1037_
*1346 _1038_
*1347 _1039_
*1348 _1040_
*1349 _1041_
*1350 _1042_
*1351 _1043_
*1352 _1044_
*1353 _1045_
*1354 _1046_
*1355 _1047_
*1356 _1048_
*1357 _1049_
*1358 _1050_
*1359 _1051_
*1360 _1052_
*1361 _1053_
*1362 _1054_
*1363 _1055_
*1364 _1056_
*1365 _1057_
*1366 _1058_
*1367 _1059_
*1368 _1060_
*1369 _1061_
*1370 _1062_
*1371 _1063_
*1372 _1064_
*1373 _1065_
*1374 _1066_
*1375 _1067_
*1376 _1068_
*1377 _1069_
*1378 _1070_
*1379 _1071_
*1380 _1072_
*1381 _1073_
*1382 _1074_
*1383 _1075_
*1384 _1076_
*1385 _1077_
*1386 _1078_
*1387 _1079_
*1388 _1080_
*1389 _1081_
*1390 _1082_
*1391 _1083_
*1392 _1084_
*1393 _1085_
*1394 _1086_
*1395 _1087_
*1396 _1088_
*1397 _1089_
*1398 _1090_
*1399 _1091_
*1400 _1092_
*1401 _1093_
*1402 _1094_
*1403 _1095_
*1404 _1096_
*1405 _1097_
*1406 _1098_
*1407 _1099_
*1408 _1100_
*1409 _1101_
*1410 _1102_
*1411 _1103_
*1412 _1104_
*1413 _1105_
*1414 _1106_
*1415 _1107_
*1416 _1108_
*1417 _1109_
*1418 _1110_
*1419 _1111_
*1420 _1112_
*1421 _1113_
*1422 _1114_
*1423 _1115_
*1424 _1116_
*1425 _1117_
*1426 _1118_
*1427 _1119_
*1428 _1120_
*1429 _1121_
*1430 _1122_
*1431 _1123_
*1432 _1124_
*1433 _1125_
*1434 _1126_
*1435 _1127_
*1436 _1128_
*1437 _1129_
*1438 _1130_
*1439 _1131_
*1440 _1132_
*1441 _1133_
*1442 _1134_
*1443 _1135_
*1444 _1136_
*1445 _1137_
*1446 _1138_
*1447 _1139_
*1448 _1140_
*1449 _1141_
*1450 _1142_
*1451 _1143_
*1452 _1144_
*1453 _1145_
*1454 _1146_
*1455 _1147_
*1456 _1148_
*1457 _1149_
*1458 _1150_
*1459 _1151_
*1460 _1152_
*1461 _1153_
*1462 _1154_
*1463 _1155_
*1464 _1156_
*1465 _1157_
*1466 _1158_
*1467 _1159_
*1468 _1160_
*1469 _1161_
*1470 _1162_
*1471 _1163_
*1472 _1164_
*1473 _1165_
*1474 _1166_
*1475 _1167_
*1476 _1168_
*1477 _1169_
*1478 _1170_
*1479 _1171_
*1480 _1172_
*1481 _1173_
*1482 _1174_
*1483 _1175_
*1484 _1176_
*1485 _1177_
*1486 _1178_
*1487 _1179_
*1488 _1180_
*1489 _1181_
*1490 _1182_
*1491 _1183_
*1492 _1184_
*1493 _1185_
*1494 _1186_
*1495 _1187_
*1496 _1188_
*1497 _1189_
*1498 _1190_
*1499 _1191_
*1500 _1192_
*1501 _1193_
*1502 _1194_
*1503 _1195_
*1504 _1196_
*1505 _1197_
*1506 _1198_
*1507 _1199_
*1508 _1200_
*1509 _1201_
*1510 _1202_
*1511 _1203_
*1512 _1204_
*1513 _1205_
*1514 _1206_
*1515 _1207_
*1516 _1208_
*1517 _1209_
*1518 _1210_
*1519 _1211_
*1520 _1212_
*1521 _1213_
*1522 _1214_
*1523 _1215_
*1524 _1216_
*1525 _1217_
*1526 _1218_
*1527 _1219_
*1528 _1220_
*1529 _1221_
*1530 _1222_
*1531 _1223_
*1532 _1224_
*1533 _1225_
*1534 _1226_
*1535 _1227_
*1536 _1228_
*1537 _1229_
*1538 _1230_
*1539 _1231_
*1540 _1232_
*1541 _1233_
*1542 _1234_
*1543 _1235_
*1544 _1236_
*1545 _1237_
*1546 _1238_
*1547 _1239_
*1548 _1240_
*1549 _1241_
*1550 _1242_
*1551 _1243_
*1552 _1244_
*1553 _1245_
*1554 _1246_
*1555 _1247_
*1556 _1248_
*1557 _1249_
*1558 _1250_
*1559 _1251_
*1560 _1252_
*1561 _1253_
*1562 _1254_
*1563 _1255_
*1564 _1256_
*1565 _1257_
*1566 _1258_
*1567 _1259_
*1568 _1260_
*1569 _1261_
*1570 _1262_
*1571 _1263_
*1572 _1264_
*1573 _1265_
*1574 _1266_
*1575 _1267_
*1576 _1268_
*1577 _1269_
*1578 _1270_
*1579 _1271_
*1580 _1272_
*1581 _1273_
*1582 _1274_
*1583 _1275_
*1584 _1276_
*1585 _1277_
*1586 _1278_
*1587 _1279_
*1588 _1280_
*1589 _1281_
*1590 _1282_
*1591 _1283_
*1592 _1284_
*1593 _1285_
*1594 _1286_
*1595 _1287_
*1596 _1288_
*1597 _1289_
*1598 _1290_
*1599 _1291_
*1600 _1292_
*1601 _1293_
*1602 _1294_
*1603 _1295_
*1604 _1296_
*1605 _1297_
*1606 _1298_
*1607 _1299_
*1608 _1300_
*1609 _1301_
*1610 _1302_
*1611 _1303_
*1612 _1304_
*1613 _1305_
*1614 _1306_
*1615 _1307_
*1616 _1308_
*1617 _1309_
*1618 _1310_
*1619 _1311_
*1620 _1312_
*1621 _1313_
*1622 _1314_
*1623 _1315_
*1624 _1316_
*1625 _1317_
*1626 _1318_
*1627 _1319_
*1628 _1320_
*1629 _1321_
*1630 _1322_
*1631 _1323_
*1632 _1324_
*1633 _1325_
*1634 _1326_
*1635 _1327_
*1636 _1328_
*1637 _1329_
*1638 _1330_
*1639 _1331_
*1640 _1332_
*1641 _1333_
*1642 _1334_
*1643 _1335_
*1644 _1336_
*1645 _1337_
*1646 _1338_
*1647 _1339_
*1648 _1340_
*1649 _1341_
*1650 _1342_
*1651 _1343_
*1652 _1344_
*1653 _1345_
*1654 _1346_
*1655 _1347_
*1656 _1348_
*1657 _1349_
*1658 _1350_
*1659 _1351_
*1660 _1352_
*1661 _1353_
*1662 _1354_
*1663 _1355_
*1664 _1356_
*1665 _1357_
*1666 _1358_
*1667 _1359_
*1668 _1360_
*1669 _1361_
*1670 _1362_
*1671 _1363_
*1672 _1364_
*1673 _1365_
*1674 _1366_
*1675 _1367_
*1676 _1368_
*1677 _1369_
*1678 _1370_
*1679 _1371_
*1680 _1372_
*1681 _1373_
*1682 _1374_
*1683 _1375_
*1684 _1376_
*1685 _1377_
*1686 _1378_
*1687 _1379_
*1688 _1380_
*1689 _1381_
*1690 _1382_
*1691 _1383_
*1692 _1384_
*1693 _1385_
*1694 _1386_
*1695 _1387_
*1696 _1388_
*1697 _1389_
*1698 _1390_
*1699 _1391_
*1700 _1392_
*1701 _1393_
*1702 _1394_
*1703 _1395_
*1704 _1396_
*1705 _1397_
*1706 _1398_
*1707 _1399_
*1708 _1400_
*1709 _1401_
*1710 _1402_
*1711 _1403_
*1712 _1404_
*1713 _1405_
*1714 _1406_
*1715 _1407_
*1716 _1408_
*1717 _1409_
*1718 _1410_
*1719 _1411_
*1720 _1412_
*1721 _1413_
*1722 _1414_
*1723 _1415_
*1724 _1416_
*1725 _1417_
*1726 _1418_
*1727 _1419_
*1728 _1420_
*1729 _1421_
*1730 _1422_
*1731 _1423_
*1732 _1424_
*1733 _1425_
*1734 _1426_
*1735 _1427_
*1736 _1428_
*1737 _1429_
*1738 _1430_
*1739 _1431_
*1740 _1432_
*1741 _1433_
*1742 _1434_
*1743 _1435_
*1744 _1436_
*1745 _1437_
*1746 _1438_
*1747 _1439_
*1748 _1440_
*1749 _1441_
*1750 _1442_
*1751 _1443_
*1752 _1444_
*1753 _1445_
*1754 _1446_
*1755 _1447_
*1756 _1448_
*1757 _1449_
*1758 _1450_
*1759 _1451_
*1760 _1452_
*1761 _1453_
*1762 _1454_
*1763 _1455_
*1764 _1456_
*1765 _1457_
*1766 _1458_
*1767 _1459_
*1768 _1460_
*1769 _1461_
*1770 _1462_
*1771 _1463_
*1772 _1464_
*1773 _1465_
*1774 _1466_
*1775 _1467_
*1776 _1468_
*1777 _1469_
*1778 _1470_
*1779 _1471_
*1780 _1472_
*1781 _1473_
*1782 _1474_
*1783 _1475_
*1784 _1476_
*1785 _1477_
*1786 _1478_
*1787 _1479_
*1788 _1480_
*1789 _1481_
*1790 _1482_
*1791 _1483_
*1792 _1484_
*1793 _1485_
*1794 _1486_
*1795 _1487_
*1796 _1488_
*1797 _1489_
*1798 _1490_
*1799 _1491_
*1800 _1492_
*1801 _1493_
*1802 _1494_
*1803 _1495_
*1804 _1496_
*1805 _1497_
*1806 _1498_
*1807 _1499_
*1808 _1500_
*1809 _1501_
*1810 _1502_
*1811 _1503_
*1812 _1504_
*1813 _1505_
*1814 _1506_
*1815 _1507_
*1816 _1508_
*1817 _1509_
*1818 _1510_
*1819 _1511_
*1820 _1512_
*1821 _1513_
*1822 _1514_
*1823 _1515_
*1824 _1516_
*1825 _1517_
*1826 _1518_
*1827 _1519_
*1828 _1520_
*1829 _1521_
*1830 _1522_
*1831 _1523_
*1832 _1524_
*1833 _1525_
*1834 _1526_
*1835 _1527_
*1836 _1528_
*1837 _1529_
*1838 _1530_
*1839 _1531_
*1840 _1532_
*1841 _1533_
*1842 _1534_
*1843 _1535_
*1844 _1536_
*1845 _1537_
*1846 _1538_
*1847 _1539_
*1848 _1540_
*1849 _1541_
*1850 _1542_
*1851 _1543_
*1852 _1544_
*1853 _1545_
*1854 _1546_
*1855 _1547_
*1856 _1548_
*1857 _1549_
*1858 _1550_
*1859 _1551_
*1860 _1552_
*1861 _1553_
*1862 _1554_
*1863 _1555_
*1864 _1556_
*1865 _1557_
*1866 _1558_
*1867 _1559_
*1868 _1560_
*1869 _1561_
*1870 _1562_
*1871 _1563_
*1872 _1564_
*1873 _1565_
*1874 _1566_
*1875 _1567_
*1876 _1568_
*1877 _1569_
*1878 _1570_
*1879 _1571_
*1880 _1572_
*1881 _1573_
*1882 _1574_
*1883 _1575_
*1884 _1576_
*1885 _1577_
*1886 _1578_
*1887 _1579_
*1888 _1580_
*1889 _1581_
*1890 _1582_
*1891 _1583_
*1892 _1584_
*1893 _1585_
*1894 _1586_
*1895 _1587_
*1896 _1588_
*1897 _1589_
*1898 _1590_
*1899 _1591_
*1900 _1592_
*1901 _1593_
*1902 _1594_
*1903 _1595_
*1904 _1596_
*1905 _1597_
*1906 _1598_
*1907 _1599_
*1908 _1600_
*1909 _1601_
*1910 _1602_
*1911 _1603_
*1912 _1604_
*1913 _1605_
*1914 _1606_
*1915 _1607_
*1916 _1608_
*1917 _1609_
*1918 _1610_
*1919 _1611_
*1920 _1612_
*1921 _1613_
*1922 _1614_
*1923 _1615_
*1924 _1616_
*1925 _1617_
*1926 _1618_
*1927 _1619_
*1928 _1620_
*1929 _1621_
*1930 _1622_
*1931 _1623_
*1932 _1624_
*1933 _1625_
*1934 _1626_
*1935 _1627_
*1936 _1628_
*1937 _1629_
*1938 _1630_
*1939 _1631_
*1940 _1632_
*1941 _1633_
*1942 _1634_
*1943 _1635_
*1944 _1636_
*1945 _1637_
*1946 _1638_
*1947 _1639_
*1948 _1640_
*1949 _1641_
*1950 _1642_
*1951 _1643_
*1952 _1644_
*1953 _1645_
*1954 _1646_
*1955 _1647_
*1956 _1648_
*1957 _1649_
*1958 _1650_
*1959 _1651_
*1960 _1652_
*1961 _1653_
*1962 _1654_
*1963 _1655_
*1964 _1656_
*1965 _1657_
*1966 _1658_
*1967 _1659_
*1968 _1660_
*1969 _1661_
*1970 _1662_
*1971 _1663_
*1972 _1664_
*1973 _1665_
*1974 _1666_
*1975 _1667_
*1976 _1668_
*1977 _1669_
*1978 _1670_
*1979 _1671_
*1980 _1672_
*1981 _1673_
*1982 _1674_
*1983 _1675_
*1984 _1676_
*1985 _1677_
*1986 _1678_
*1987 _1679_
*1988 _1680_
*1989 _1681_
*1990 _1682_
*1991 _1683_
*1992 _1684_
*1993 _1685_
*1994 _1686_
*1995 _1687_
*1996 _1688_
*1997 _1689_
*1998 _1690_
*1999 _1691_
*2000 _1692_
*2001 _1693_
*2002 _1694_
*2003 _1695_
*2004 _1696_
*2005 _1697_
*2006 _1698_
*2007 _1699_
*2008 _1700_
*2009 _1701_
*2010 _1702_
*2011 _1703_
*2012 _1704_
*2013 _1705_
*2014 _1706_
*2015 _1707_
*2016 _1708_
*2017 _1709_
*2018 _1710_
*2019 _1711_
*2020 _1712_
*2021 _1713_
*2022 _1714_
*2023 _1715_
*2024 _1716_
*2025 _1717_
*2026 _1718_
*2027 _1719_
*2028 _1720_
*2029 _1721_
*2030 _1722_
*2031 _1723_
*2032 _1724_
*2033 _1725_
*2034 _1726_
*2035 _1727_
*2036 _1728_
*2037 _1729_
*2038 _1730_
*2039 _1731_
*2040 _1732_
*2041 _1733_
*2042 _1734_
*2043 _1735_
*2044 _1736_
*2045 _1737_
*2046 _1738_
*2047 _1739_
*2048 _1740_
*2049 _1741_
*2050 _1742_
*2051 _1743_
*2052 _1744_
*2053 _1745_
*2054 _1746_
*2055 _1747_
*2056 _1748_
*2057 _1749_
*2058 _1750_
*2059 _1751_
*2060 _1752_
*2061 _1753_
*2062 _1754_
*2063 _1755_
*2064 _1756_
*2065 _1757_
*2066 _1758_
*2067 _1759_
*2068 _1760_
*2069 _1761_
*2070 _1762_
*2071 _1763_
*2072 _1764_
*2073 _1765_
*2074 _1766_
*2075 _1767_
*2076 _1768_
*2077 _1769_
*2078 _1770_
*2079 _1771_
*2080 _1772_
*2081 _1773_
*2082 _1774_
*2083 _1775_
*2084 _1776_
*2085 _1777_
*2086 _1778_
*2087 _1779_
*2088 _1780_
*2089 _1781_
*2090 _1782_
*2091 _1783_
*2092 _1784_
*2093 _1785_
*2094 _1786_
*2095 _1787_
*2096 _1788_
*2097 _1789_
*2098 _1790_
*2099 _1791_
*2100 _1792_
*2101 _1793_
*2102 _1794_
*2103 _1795_
*2104 _1796_
*2105 _1797_
*2106 _1798_
*2107 _1799_
*2108 _1800_
*2109 _1801_
*2110 _1802_
*2111 _1803_
*2112 _1804_
*2113 _1805_
*2114 _1806_
*2115 _1807_
*2116 _1808_
*2117 _1809_
*2118 _1810_
*2119 _1811_
*2120 _1812_
*2121 _1813_
*2122 _1814_
*2123 _1815_
*2124 _1816_
*2125 _1817_
*2126 _1818_
*2127 _1819_
*2128 _1820_
*2129 _1821_
*2130 _1822_
*2131 _1823_
*2132 _1824_
*2133 _1825_
*2134 _1826_
*2135 _1827_
*2136 _1828_
*2137 _1829_
*2138 _1830_
*2139 _1831_
*2140 _1832_
*2141 _1833_
*2142 _1834_
*2143 _1835_
*2144 _1836_
*2145 _1837_
*2146 _1838_
*2147 _1839_
*2148 _1840_
*2149 _1841_
*2150 _1842_
*2151 _1843_
*2152 _1844_
*2153 _1845_
*2154 _1846_
*2155 _1847_
*2156 _1848_
*2157 _1849_
*2158 _1850_
*2159 _1851_
*2160 _1852_
*2161 _1853_
*2162 _1854_
*2163 _1855_
*2164 _1856_
*2165 _1857_
*2166 _1858_
*2167 _1859_
*2168 _1860_
*2169 _1861_
*2170 _1862_
*2171 _1863_
*2172 _1864_
*2173 _1865_
*2174 _1866_
*2175 _1867_
*2176 _1868_
*2177 _1869_
*2178 _1870_
*2179 _1871_
*2180 _1872_
*2181 _1873_
*2182 _1874_
*2183 _1875_
*2184 _1876_
*2185 _1877_
*2186 _1878_
*2187 _1879_
*2188 _1880_
*2189 _1881_
*2190 _1882_
*2191 _1883_
*2192 _1884_
*2193 _1885_
*2194 _1886_
*2195 _1887_
*2196 _1888_
*2197 _1889_
*2198 _1890_
*2199 _1891_
*2200 _1892_
*2201 _1893_
*2202 _1894_
*2203 _1895_
*2204 _1896_
*2205 _1897_
*2206 _1898_
*2207 _1899_
*2208 _1900_
*2209 _1901_
*2210 _1902_
*2211 _1903_
*2212 _1904_
*2213 _1905_
*2214 _1906_
*2215 _1907_
*2216 _1908_
*2217 _1909_
*2218 _1910_
*2219 _1911_
*2220 _1912_
*2221 _1913_
*2222 _1914_
*2223 _1915_
*2224 _1916_
*2225 _1917_
*2226 _1918_
*2227 _1919_
*2228 _1920_
*2229 _1921_
*2230 _1922_
*2231 _1923_
*2232 _1924_
*2233 _1925_
*2234 _1926_
*2235 _1927_
*2236 _1928_
*2237 _1929_
*2238 _1930_
*2239 _1931_
*2240 _1932_
*2241 _1933_
*2242 _1934_
*2243 _1935_
*2244 _1936_
*2245 _1937_
*2246 _1938_
*2247 _1939_
*2248 _1940_
*2249 _1941_
*2250 _1942_
*2251 _1943_
*2252 _1944_
*2253 _1945_
*2254 _1946_
*2255 _1947_
*2256 _1948_
*2257 _1949_
*2258 _1950_
*2259 _1951_
*2260 _1952_
*2261 _1953_
*2262 _1954_
*2263 _1955_
*2264 _1956_